Circuit: * C:\Users\abeel\AppData\Local\LTspice\Laboratorios de Síntesis de Redes Activas\Laboratorio n° 3\Circuito 3\Laboratorio n° 3 - Circuito 3.asc

Direct Newton iteration failed to find .op point.  (Use ".option noopiter" to skip.)
Starting Gmin stepping
Gmin = 10
Gmin = 1.07374
vernier = 0.5
vernier = 0.25
vernier = 0.125
vernier = 0.0625
Gmin = 1.08884
vernier = 0.03125
vernier = 0.015625
vernier = 0.0078125
vernier = 0.00390625
Gmin = 1.07828
vernier = 0.00195312
vernier = 0.000976562
vernier = 0.000488281
Gmin = 1.07644
Gmin = 0
Gmin stepping failed

Starting source stepping with srcstepmethod=0
Source Step = 3.0303%
Source Step = 33.3333%
Source Step = 63.6364%
Source Step = 88.6364%
vernier = 0.0625
Source Step = 87.9439%
Source Step = 87.9735%
Source Step = 88.0031%
Source Step = 88.0327%
Source Step = 88.0623%
vernier = 0.00146484
Source Step = 88.0963%
Source Step = 88.1407%
Source Step = 88.1851%
Source Step = 88.2295%
Source Step = 88.2739%
vernier = 0.00219727
Source Step = 88.3227%
Source Step = 88.3893%
Source Step = 88.4558%
Source Step = 88.5224%
Source Step = 88.589%
vernier = 0.0032959
Source Step = 88.6589%
Source Step = 88.7588%
Source Step = 88.8587%
Source Step = 88.9586%
Source Step = 89.0584%
Source Step = 89.1583%
vernier = 0.00494385
Source Step = 89.3081%
Source Step = 89.4579%
Source Step = 89.6077%
Source Step = 89.7576%
Source Step = 89.9074%
vernier = 0.00741577
Source Step = 90.0516%
Source Step = 90.1078%
Source Step = 90.1639%
Source Step = 90.2201%
Source Step = 90.2763%
Source Step = 90.3325%
Source Step = 90.3887%
Source Step = 90.4448%
Source Step = 90.501%
Source Step = 90.5572%
Source Step = 90.6134%
Source Step = 90.6696%
vernier = 0.00278091
Source Step = 90.751%
Source Step = 90.8353%
Source Step = 90.9196%
Source Step = 91.0038%
Source Step = 91.0881%
vernier = 0.00417137
Source Step = 91.2061%
Source Step = 91.3325%
Source Step = 91.4589%
Source Step = 91.5853%
Source Step = 91.7117%
vernier = 0.00625706
Source Step = 91.8823%
Source Step = 92.0719%
Source Step = 92.2616%
Source Step = 92.4512%
Source Step = 92.6408%
vernier = 0.00938559
Source Step = 92.8873%
Source Step = 93.1717%
Source Step = 93.4561%
Source Step = 93.7405%
Source Step = 94.0249%
vernier = 0.0140784
Source Step = 94.3804%
Source Step = 94.807%
Source Step = 95.2337%
Source Step = 95.6603%
Source Step = 96.0869%
vernier = 0.0211176
Source Step = 96.5988%
Source Step = 97.2388%
Source Step = 97.8787%
Source Step = 98.5186%
Source Step = 99.1585%
vernier = 0.0316764
Source Step = 99.8945%
Source stepping succeeded in finding the operating point.

Ignoring empty pin current: Ix(u1:dummy)
Ignoring empty pin current: Ix(u2:dummy)
Ignoring empty pin current: Ix(u1:dummy)
Ignoring empty pin current: Ix(u2:dummy)

Date: Sat Dec 16 09:39:48 2023
Total elapsed time: 0.518 seconds.

tnom = 27
temp = 27
method = trap
totiter = 10546
traniter = 0
tranpoints = 0
accept = 0
rejected = 0
matrix size = 126
fillins = 275
solver = Normal
Avg thread counts: 1.1/0.0/1.9/1.1
Matrix Compiler1:    1355 opcodes
Matrix Compiler2: off  [1.1]/2.4/1.2

