Circuit: * C:\Users\facun\Documents\LTspiceXVII\Circuito 2\Draft1.asc

Direct Newton iteration for .op point succeeded.

Date: Fri Dec  8 17:28:36 2023
Total elapsed time: 0.147 seconds.

tnom = 27
temp = 27
method = modified trap
totiter = 841
traniter = 838
tranpoints = 420
accept = 264
rejected = 156
matrix size = 9
fillins = 2
solver = Normal
Avg thread counts: 4.3/6.1/6.1/4.3
Matrix Compiler1:      21 opcodes  0.3/[0.3]/0.3
Matrix Compiler2: 687 bytes object code size  0.2/0.3/[0.2]

