Circuit: * C:\Users\fabio\AppData\Local\LTspice\lib\sym\AutoGenerated\tp2_complete.asc

Direct Newton iteration failed to find .op point.  (Use ".option noopiter" to skip.)
Starting Gmin stepping
Gmin = 10
Gmin = 1.07374
Gmin = 0.115292
Gmin = 0.0123794
Gmin = 0.00132923
Gmin = 0.000142725
Gmin = 1.5325e-05
vernier = 0.5
vernier = 0.25
vernier = 0.125
vernier = 0.0625
Gmin = 1.18885e-05
vernier = 0.0833333
Gmin = 9.92394e-06
vernier = 0.111111
vernier = 0.148148
Gmin = 7.39522e-06
vernier = 0.197531
vernier = 0.263374
Gmin = 4.65877e-06
vernier = 0.351165
Gmin = 2.2237e-06
vernier = 0.46822
vernier = 0.624294
Gmin = 6.80968e-07
vernier = 0.832392
vernier = 1
Gmin = 1.13409e-07
Gmin = 1.21772e-08
Gmin = 1.30752e-09
Gmin = 1.40394e-10
Gmin = 1.50747e-11
Gmin = 1.61863e-12
Gmin = 1.73799e-13
Gmin = 0
Gmin stepping succeeded in finding the operating point.


Date: Sat Dec 16 03:47:14 2023
Total elapsed time: 0.957 seconds.

tnom = 27
temp = 27
method = modified trap
totiter = 73904
traniter = 72941
tranpoints = 17278
accept = 12980
rejected = 4298
matrix size = 141
fillins = 186
solver = Normal
Avg thread counts: 1.0/1.2/1.1/1.0
Matrix Compiler1:     990 opcodes  2.9/[2.0]/2.6
Matrix Compiler2: 14.55 KB object code size  0.9/1.4/[0.7]

