Circuit: * C:\Users\abeel\OneDrive\Desktop\Laboratorio3\Simulaciones_LTSpice\Circuito 2\Laboratorio n° 3 - Circuito 2.asc

Direct Newton iteration failed to find .op point.  (Use ".option noopiter" to skip.)
Starting Gmin stepping
Gmin = 10
Gmin = 1.07374
vernier = 0.5
vernier = 0.25
vernier = 0.125
vernier = 0.0625
Gmin = 1.08884
vernier = 0.03125
vernier = 0.015625
vernier = 0.0078125
vernier = 0.00390625
Gmin = 1.07828
vernier = 0.00195312
vernier = 0.000976562
vernier = 0.000488281
Gmin = 1.07644
Gmin = 0
Gmin stepping failed

Starting source stepping with srcstepmethod=0
Source Step = 3.0303%
Source Step = 33.3333%
Source Step = 63.6364%
Source Step = 85.0379%
vernier = 0.015625
Source Step = 84.955%
Source Step = 85.0734%
Source Step = 85.1918%
Source Step = 85.3101%
Source Step = 85.4285%
vernier = 0.00585938
Source Step = 85.5942%
Source Step = 85.7718%
Source Step = 85.9493%
Source Step = 86.1269%
Source Step = 86.3045%
vernier = 0.00878906
Source Step = 86.5442%
Source Step = 86.8105%
Source Step = 87.0768%
Source Step = 87.3432%
Source Step = 87.6095%
vernier = 0.0131836
Source Step = 87.8259%
Source Step = 87.9258%
Source Step = 88.0256%
Source Step = 88.1255%
Source Step = 88.2254%
Source Step = 88.3253%
vernier = 0.00494385
Source Step = 88.4701%
Source Step = 88.6199%
Source Step = 88.7697%
Source Step = 88.9195%
Source Step = 89.0693%
vernier = 0.00741577
Source Step = 89.2791%
Source Step = 89.5038%
Source Step = 89.7285%
Source Step = 89.9532%
Source Step = 90.0712%
Source Step = 90.1274%
Source Step = 90.1836%
Source Step = 90.2398%
Source Step = 90.2959%
Source Step = 90.3521%
Source Step = 90.4083%
Source Step = 90.4645%
Source Step = 90.5207%
Source Step = 90.5768%
Source Step = 90.633%
Source Step = 90.6892%
Source Step = 90.7454%
vernier = 0.00278091
Source Step = 90.824%
Source Step = 90.9083%
Source Step = 90.9926%
Source Step = 91.0768%
Source Step = 91.1611%
vernier = 0.00417137
Source Step = 91.2749%
Source Step = 91.4013%
Source Step = 91.5277%
Source Step = 91.6541%
Source Step = 91.7805%
vernier = 0.00625706
Source Step = 91.9448%
Source Step = 92.1344%
Source Step = 92.324%
Source Step = 92.5137%
Source Step = 92.7033%
vernier = 0.00938559
Source Step = 92.9403%
Source Step = 93.2247%
Source Step = 93.5091%
Source Step = 93.7935%
Source Step = 94.0779%
vernier = 0.0140784
Source Step = 94.4192%
Source Step = 94.8458%
Source Step = 95.2724%
Source Step = 95.6991%
Source Step = 96.1257%
vernier = 0.0211176
Source Step = 96.6163%
Source Step = 97.2562%
Source Step = 97.8961%
Source Step = 98.5361%
Source Step = 99.176%
vernier = 0.0316764
Source Step = 99.8799%
Source stepping succeeded in finding the operating point.

Ignoring empty pin current: Ix(u1:dummy)
Ignoring empty pin current: Ix(u2:dummy)
Ignoring empty pin current: Ix(u1:dummy)
Ignoring empty pin current: Ix(u2:dummy)

Date: Wed Dec 20 15:23:51 2023
Total elapsed time: 0.754 seconds.

tnom = 27
temp = 27
method = trap
totiter = 12078
traniter = 0
tranpoints = 0
accept = 0
rejected = 0
matrix size = 125
fillins = 258
solver = Normal
Avg thread counts: 1.1/0.0/1.8/1.1
Matrix Compiler1:    1479 opcodes
Matrix Compiler2: 15.39 KB object code size  1.0/1.2/[0.8]

