Circuit: * C:\Users\abeel\AppData\Local\LTspice\Laboratorios de Síntesis de Redes Activas\Laboratorio n° 3\Circuito 2\Laboratorio n° 3 - Circuito 2.asc

Direct Newton iteration failed to find .op point.  (Use ".option noopiter" to skip.)
Starting Gmin stepping
Gmin = 10
Gmin = 1.07374
vernier = 0.5
vernier = 0.25
vernier = 0.125
vernier = 0.0625
Gmin = 1.08884
vernier = 0.03125
vernier = 0.015625
vernier = 0.0078125
vernier = 0.00390625
Gmin = 1.07828
vernier = 0.00195312
vernier = 0.000976562
vernier = 0.000488281
Gmin = 1.07644
Gmin = 0
Gmin stepping failed

Starting source stepping with srcstepmethod=0
Source Step = 3.0303%
Source Step = 33.3333%
Source Step = 63.6364%
Source Step = 86.3636%
Source Step = 87.6953%
Source Step = 87.7249%
Source Step = 87.7545%
Source Step = 87.7841%
Source Step = 87.8137%
Source Step = 87.8433%
Source Step = 87.8729%
Source Step = 87.9025%
Source Step = 87.9321%
Source Step = 87.9616%
vernier = 0.00146484
Source Step = 88.0001%
Source Step = 88.0445%
Source Step = 88.0889%
Source Step = 88.1333%
Source Step = 88.1777%
vernier = 0.00219727
Source Step = 88.2332%
Source Step = 88.2997%
Source Step = 88.3663%
Source Step = 88.4329%
Source Step = 88.4995%
vernier = 0.0032959
Source Step = 88.5794%
Source Step = 88.6793%
Source Step = 88.7791%
Source Step = 88.879%
Source Step = 88.9789%
vernier = 0.00494385
Source Step = 89.0938%
Source Step = 89.2436%
Source Step = 89.3934%
Source Step = 89.5432%
Source Step = 89.693%
vernier = 0.00741577
Source Step = 89.8578%
Source Step = 90.0825%
Source Step = 90.1499%
Source Step = 90.2061%
Source Step = 90.2623%
Source Step = 90.3185%
Source Step = 90.3747%
vernier = 0.00278091
Source Step = 90.4477%
Source Step = 90.532%
Source Step = 90.6162%
Source Step = 90.7005%
Source Step = 90.7848%
vernier = 0.00417137
Source Step = 90.8901%
Source Step = 91.0165%
Source Step = 91.1429%
Source Step = 91.2693%
Source Step = 91.3957%
vernier = 0.00625706
Source Step = 91.5474%
Source Step = 91.737%
Source Step = 91.9266%
Source Step = 92.1162%
Source Step = 92.3059%
vernier = 0.00938559
Source Step = 92.5239%
Source Step = 92.8083%
Source Step = 93.0927%
Source Step = 93.3771%
Source Step = 93.6615%
vernier = 0.0140784
Source Step = 93.9744%
Source Step = 94.401%
Source Step = 94.8276%
Source Step = 95.2543%
Source Step = 95.6809%
vernier = 0.0211176
Source Step = 96.1288%
Source Step = 96.7687%
Source Step = 97.4087%
Source Step = 98.0486%
Source Step = 98.6885%
Source Step = 99.3285%
vernier = 0.0316764
Source stepping succeeded in finding the operating point.

Ignoring empty pin current: Ix(u1:dummy)
Ignoring empty pin current: Ix(u2:dummy)
Ignoring empty pin current: Ix(u1:dummy)
Ignoring empty pin current: Ix(u2:dummy)

Date: Thu Dec 14 02:25:20 2023
Total elapsed time: 1.705 seconds.

tnom = 27
temp = 27
method = modified trap
totiter = 45573
traniter = 39260
tranpoints = 10425
accept = 7023
rejected = 3402
matrix size = 125
fillins = 257
solver = Normal
Avg thread counts: 2.0/1.1/1.0/1.0
Matrix Compiler1: 26.04 KB object code size  13.9/8.5/[4.1]
Matrix Compiler2: 15.37 KB object code size  3.6/6.4/[2.2]

