Circuit: * C:\Users\fabio\AppData\Local\LTspice\lib\sym\AutoGenerated\variantes\tp2_caso1b_visual.asc

Direct Newton iteration failed to find .op point.  (Use ".option noopiter" to skip.)
Starting Gmin stepping
Gmin = 10
Gmin = 1.07374
Gmin = 0.115292
Gmin = 0.0123794
Gmin = 0.00132923
vernier = 0.5
vernier = 0.25
Gmin = 0.00053587
vernier = 0.125
vernier = 0.0625
vernier = 0.03125
vernier = 0.015625
Gmin = 0.000562741
vernier = 0.0208333
vernier = 0.0277778
Gmin = 0.000533795
vernier = 0.037037
Gmin = 0.000491288
vernier = 0.0493827
vernier = 0.0658435
vernier = 0.0329218
Gmin = 0.000448997
vernier = 0.0164609
vernier = 0.00823044
vernier = 0.00411522
vernier = 0.00205761
Gmin = 0.000451995
vernier = 0.00274348
vernier = 0.00365797
Gmin = 0.000448855
vernier = 0.0048773
Gmin = 0.000443959
vernier = 0.00650306
vernier = 0.00867074
Gmin = 0.000435861
vernier = 0.011561
vernier = 0.0154146
Gmin = 0.000423259
vernier = 0.0205529
Gmin = 0.000404176
vernier = 0.0274038
vernier = 0.0365384
Gmin = 0.000374096
vernier = 0.0487178
vernier = 0.0649571
Gmin = 0.000330786
vernier = 0.0866095
Gmin = 0.000272737
vernier = 0.115479
vernier = 0.153972
Gmin = 0.000197682
vernier = 0.205296
vernier = 0.273728
Gmin = 0.000118918
vernier = 0.364971
Gmin = 5.40419e-05
vernier = 0.486628
vernier = 0.648837
Gmin = 1.48742e-05
vernier = 0.865116
vernier = 1
Gmin = 2.17693e-06
Gmin = 2.33746e-07
Gmin = 2.50983e-08
Gmin = 2.69491e-09
Gmin = 2.89364e-10
Gmin = 3.10702e-11
Gmin = 3.33614e-12
Gmin = 3.58215e-13
Gmin = 0
Gmin stepping succeeded in finding the operating point.

Direct Newton iteration failed to find .op point.  (Use ".option noopiter" to skip.)
Starting Gmin stepping
Gmin = 10
Gmin = 1.07374
Gmin = 0.115292
Gmin = 0.0123794
Gmin = 0.00132923
vernier = 0.5
vernier = 0.25
Gmin = 0.00053587
vernier = 0.125
vernier = 0.0625
vernier = 0.03125
vernier = 0.015625
Gmin = 0.000562741
vernier = 0.0208333
vernier = 0.0277778
Gmin = 0.000533795
vernier = 0.037037
Gmin = 0.000491288
vernier = 0.0493827
vernier = 0.0658435
vernier = 0.0329218
Gmin = 0.000448997
vernier = 0.0164609
vernier = 0.00823044
vernier = 0.00411522
vernier = 0.00205761
Gmin = 0.000451995
vernier = 0.00274348
vernier = 0.00365797
Gmin = 0.000448855
vernier = 0.0048773
Gmin = 0.000443959
vernier = 0.00650306
vernier = 0.00867074
Gmin = 0.000435861
vernier = 0.011561
vernier = 0.0154146
Gmin = 0.000423259
vernier = 0.0205529
Gmin = 0.000404176
vernier = 0.0274038
vernier = 0.0365384
Gmin = 0.000374096
vernier = 0.0487178
vernier = 0.0649571
Gmin = 0.000330786
vernier = 0.0866095
Gmin = 0.000272737
vernier = 0.115479
vernier = 0.153972
Gmin = 0.000197682
vernier = 0.205296
vernier = 0.273728
Gmin = 0.000118918
vernier = 0.364971
Gmin = 5.40419e-05
vernier = 0.486628
vernier = 0.648837
Gmin = 1.48742e-05
vernier = 0.865116
vernier = 1
Gmin = 2.17693e-06
Gmin = 2.33746e-07
Gmin = 2.50983e-08
Gmin = 2.69491e-09
Gmin = 2.89364e-10
Gmin = 3.10702e-11
Gmin = 3.33614e-12
Gmin = 3.58215e-13
Gmin = 0
Gmin stepping succeeded in finding the operating point.

Direct Newton iteration failed to find .op point.  (Use ".option noopiter" to skip.)
Starting Gmin stepping
Gmin = 10
Gmin = 1.07374
Gmin = 0.115292
Gmin = 0.0123794
Gmin = 0.00132923
vernier = 0.5
vernier = 0.25
Gmin = 0.00053587
vernier = 0.125
vernier = 0.0625
vernier = 0.03125
vernier = 0.015625
vernier = 0.0078125
Gmin = 0.000568251
vernier = 0.00390625
vernier = 0.00195312
vernier = 0.000976562
Gmin = 0.000567697
vernier = 0.00130208
vernier = 0.00173611
Gmin = 0.000565714
vernier = 0.00231481
vernier = 0.00308642
Gmin = 0.000562586
vernier = 0.00411522
Gmin = 0.000557547
vernier = 0.00548696
vernier = 0.00731595
Gmin = 0.000549392
vernier = 0.00975459
vernier = 0.0130061
Gmin = 0.000536716
vernier = 0.0173415
Gmin = 0.000516775
vernier = 0.023122
vernier = 0.0308293
Gmin = 0.000485736
vernier = 0.0411057
vernier = 0.0205529
Gmin = 0.000453326
vernier = 0.0102764
vernier = 0.0137019
Gmin = 0.000442979
vernier = 0.0182692
vernier = 0.0243589
Gmin = 0.00042405
vernier = 0.0324786
Gmin = 0.000395069
vernier = 0.0433047
vernier = 0.0577396
Gmin = 0.000351909
vernier = 0.0769862
vernier = 0.102648
Gmin = 0.000293142
vernier = 0.136864
Gmin = 0.000218273
vernier = 0.182486
vernier = 0.243314
Gmin = 0.000135271
vernier = 0.324419
vernier = 0.432558
Gmin = 6.40427e-05
vernier = 0.576744
Gmin = 1.9544e-05
vernier = 0.768992
vernier = 1
Gmin = 3.04501e-06
Gmin = 3.26955e-07
Gmin = 3.51065e-08
Gmin = 3.76954e-09
Gmin = 4.04751e-10
Gmin = 4.34598e-11
Gmin = 4.66646e-12
Gmin = 5.01057e-13
Gmin = 0
Gmin stepping succeeded in finding the operating point.

Direct Newton iteration failed to find .op point.  (Use ".option noopiter" to skip.)
Starting Gmin stepping
Gmin = 10
Gmin = 1.07374
Gmin = 0.115292
Gmin = 0.0123794
Gmin = 0.00132923
vernier = 0.5
vernier = 0.25
Gmin = 0.00053587
vernier = 0.125
vernier = 0.0625
vernier = 0.03125
vernier = 0.015625
vernier = 0.0078125
Gmin = 0.000567146
vernier = 0.00390625
vernier = 0.00195312
vernier = 0.00260417
Gmin = 0.000565395
vernier = 0.00347222
Gmin = 0.000561119
vernier = 0.00462963
vernier = 0.00617283
Gmin = 0.000554185
vernier = 0.00823044
vernier = 0.0109739
Gmin = 0.000543375
vernier = 0.0146319
Gmin = 0.000526286
vernier = 0.0195092
vernier = 0.0260122
Gmin = 0.000499473
vernier = 0.034683
vernier = 0.046244
Gmin = 0.00045981
vernier = 0.023122
vernier = 0.011561
vernier = 0.00578049
Gmin = 0.000451938
vernier = 0.00289025
vernier = 0.00144512
vernier = 0.00192683
Gmin = 0.000451339
vernier = 0.00256911
Gmin = 0.000448739
vernier = 0.00342548
vernier = 0.0045673
Gmin = 0.000444407
vernier = 0.00608973
vernier = 0.00811964
Gmin = 0.000437586
vernier = 0.0108262
Gmin = 0.000427069
vernier = 0.0144349
vernier = 0.0192465
Gmin = 0.00040999
vernier = 0.025662
vernier = 0.0342161
Gmin = 0.000384186
vernier = 0.0456214
Gmin = 0.000346891
vernier = 0.0608285
vernier = 0.0811047
Gmin = 0.000292411
vernier = 0.10814
vernier = 0.144186
Gmin = 0.000222992
vernier = 0.192248
Gmin = 0.000146033
vernier = 0.25633
vernier = 0.341774
Gmin = 7.24719e-05
vernier = 0.455698
vernier = 0.607598
Gmin = 2.42656e-05
vernier = 0.81013
vernier = 0.405065
vernier = 0.202533
vernier = 0.101266
vernier = 0.0506331
vernier = 0.0253166
Gmin = 1.37827e-05
vernier = 0.0126583
vernier = 0.00632914
vernier = 0.00316457
vernier = 0.00421943
Gmin = 1.36993e-05
vernier = 0.0056259
Gmin = 1.35271e-05
vernier = 0.0075012
vernier = 0.0037506
vernier = 0.0050008
Gmin = 1.33968e-05
vernier = 0.00666773
Gmin = 1.3203e-05
vernier = 0.0088903
vernier = 0.0118537
Gmin = 1.28916e-05
vernier = 0.015805
vernier = 0.0210733
Gmin = 1.24135e-05
vernier = 0.0280977
Gmin = 1.16757e-05
vernier = 0.0374636
vernier = 0.0499515
Gmin = 1.05629e-05
vernier = 0.066602
vernier = 0.0888026
Gmin = 9.01669e-06
vernier = 0.118403
Gmin = 6.98268e-06
vernier = 0.157871
vernier = 0.210495
Gmin = 4.60965e-06
vernier = 0.28066
vernier = 0.374213
Gmin = 2.40605e-06
vernier = 0.49895
Gmin = 8.54768e-07
vernier = 0.665267
vernier = 0.887023
Gmin = 1.65556e-07
vernier = 1
Gmin = 1.9038e-08
Gmin = 2.04419e-09
Gmin = 2.19493e-10
Gmin = 2.35679e-11
Gmin = 2.53059e-12
Gmin = 2.7172e-13
Gmin = 0
Gmin stepping succeeded in finding the operating point.

Direct Newton iteration failed to find .op point.  (Use ".option noopiter" to skip.)
Starting Gmin stepping
Gmin = 10
Gmin = 1.07374
Gmin = 0.115292
Gmin = 0.0123794
Gmin = 0.00132923
vernier = 0.5
vernier = 0.25
Gmin = 0.00053587
vernier = 0.125
vernier = 0.0625
vernier = 0.03125
vernier = 0.015625
vernier = 0.0078125
Gmin = 0.000567146
vernier = 0.00390625
vernier = 0.00195312
vernier = 0.000976562
Gmin = 0.000566592
vernier = 0.00130208
vernier = 0.00173611
Gmin = 0.000564614
vernier = 0.00231481
vernier = 0.00308642
Gmin = 0.000561492
vernier = 0.00411522
Gmin = 0.000556462
vernier = 0.00548696
vernier = 0.00731595
Gmin = 0.000548323
vernier = 0.00975459
vernier = 0.0130061
Gmin = 0.000535672
vernier = 0.0173415
Gmin = 0.00051577
vernier = 0.023122
vernier = 0.0308293
Gmin = 0.000484791
vernier = 0.0411057
vernier = 0.0205529
Gmin = 0.000452444
vernier = 0.0102764
vernier = 0.00513821
vernier = 0.00256911
vernier = 0.00128455
Gmin = 0.000452154
vernier = 0.00171274
vernier = 0.00228365
Gmin = 0.000450302
vernier = 0.00304487
Gmin = 0.000447314
vernier = 0.00405982
vernier = 0.00541309
Gmin = 0.000442463
vernier = 0.00721745
vernier = 0.00962327
Gmin = 0.000434884
vernier = 0.012831
Gmin = 0.000422865
vernier = 0.017108
vernier = 0.0228107
Gmin = 0.000403906
vernier = 0.0304143
vernier = 0.0405523
Gmin = 0.000375624
vernier = 0.0540698
Gmin = 0.000333959
vernier = 0.072093
vernier = 0.096124
Gmin = 0.000275662
vernier = 0.128165
vernier = 0.170887
Gmin = 0.000203745
vernier = 0.227849
Gmin = 0.000125299
vernier = 0.303799
vernier = 0.405065
Gmin = 5.72082e-05
vernier = 0.540087
vernier = 0.720115
Gmin = 1.69771e-05
vernier = 0.360058
vernier = 0.180029
vernier = 0.0900144
vernier = 0.0450072
vernier = 0.0225036
vernier = 0.0112518
vernier = 0.0056259
vernier = 0.00281295
Gmin = 1.4387e-05
vernier = 0.00140648
vernier = 0.000703238
vernier = 0.000527428
Gmin = 0
Gmin stepping failed

Starting source stepping with srcstepmethod=0
Source Step = 3.0303%
Source Step = 33.3333%
Source Step = 63.6364%
Source Step = 88.6364%
vernier = 0.0625
Source Step = 87.8995%
Source Step = 87.9291%
Source Step = 87.9587%
Source Step = 87.9883%
Source Step = 88.0179%
vernier = 0.00146484
Source Step = 88.0549%
Source Step = 88.0993%
Source Step = 88.1436%
Source Step = 88.188%
Source Step = 88.2324%
vernier = 0.00219727
Source Step = 88.2857%
Source Step = 88.3523%
Source Step = 88.4189%
Source Step = 88.4854%
Source Step = 88.552%
vernier = 0.0032959
Source Step = 88.6286%
Source Step = 88.7285%
Source Step = 88.8283%
Source Step = 88.9282%
Source Step = 89.0281%
vernier = 0.00494385
Source Step = 89.138%
Source Step = 89.2878%
Source Step = 89.4376%
Source Step = 89.5874%
Source Step = 89.7372%
vernier = 0.00741577
Source Step = 89.8945%
Source Step = 90.0125%
Starting source stepping with srcstepmethod=1
Source Step = 3.0303%
vernier = 0.25
Source Step = 3.92992%
vernier = 0.00390625
Source stepping failed

Pseudo Transient failed in finding the operating point at 5 탎.
Direct Newton iteration failed to find .op point.  (Use ".option noopiter" to skip.)
Starting Gmin stepping
Gmin = 10
Gmin = 1.07374
Gmin = 0.115292
Gmin = 0.0123794
Gmin = 0.00132923
vernier = 0.5
vernier = 0.25
Gmin = 0.00053587
vernier = 0.125
vernier = 0.0625
vernier = 0.03125
vernier = 0.015625
vernier = 0.0078125
Gmin = 0.000567146
vernier = 0.00390625
vernier = 0.00195312
vernier = 0.000976562
Gmin = 0.000566592
vernier = 0.00130208
vernier = 0.00173611
Gmin = 0.000564614
vernier = 0.00231481
vernier = 0.00308642
Gmin = 0.000561492
vernier = 0.00154321
vernier = 0.000771604
vernier = 0.000578703
vernier = 0.000434027
Gmin = 0
Gmin = 0
Gmin stepping failed

Starting source stepping with srcstepmethod=0
Source Step = 3.0303%
Source Step = 33.3333%
Source Step = 63.6364%
Source Step = 88.6364%
vernier = 0.0625
Source Step = 87.8995%
Source Step = 87.9291%
Source Step = 87.9587%
Source Step = 87.9883%
Source Step = 88.0179%
vernier = 0.00146484
Source Step = 88.0549%
Source Step = 88.0993%
Source Step = 88.1436%
Source Step = 88.188%
Source Step = 88.2324%
vernier = 0.00219727
Source Step = 88.2857%
Source Step = 88.3523%
Source Step = 88.4189%
Source Step = 88.4854%
Source Step = 88.552%
vernier = 0.0032959
Source Step = 88.6286%
Source Step = 88.7285%
Source Step = 88.8283%
Source Step = 88.9282%
Source Step = 89.0281%
vernier = 0.00494385
Source Step = 89.138%
Source Step = 89.2878%
Source Step = 89.4376%
Source Step = 89.5874%
Source Step = 89.7372%
vernier = 0.00741577
Source Step = 89.8945%
Source Step = 90.0125%
Starting source stepping with srcstepmethod=1
Source Step = 3.0303%
vernier = 0.25
Source Step = 7.57576%
Source Step = 15.1515%
Source Step = 22.7273%
Source Step = 30.303%
Source Step = 37.8788%
vernier = 0.375
Source Step = 48.8636%
Source Step = 60.2273%
Source Step = 71.5909%
Source Step = 82.9545%
Source Step = 94.3182%
vernier = 0.5625
Source Step = 99.7457%
vernier = 0.00878906
Source Step = 99.6991%
Source Step = 99.7657%
Source Step = 99.8323%
Source Step = 99.8989%
Source Step = 99.9655%
Source Step = 100%
Source Step = 100%
Source Step = 100%
Source Step = 100%
Source Step = 100%
Source Step = 100%
Source Step = 100%
Source Step = 100%
Source stepping failed

Pseudo Transient failed in finding the operating point at 5 탎.
Direct Newton iteration failed to find .op point.  (Use ".option noopiter" to skip.)
Starting Gmin stepping
Gmin = 10
Gmin = 1.07374
Gmin = 0.115292
Gmin = 0.0123794
Gmin = 0.00132923
vernier = 0.5
vernier = 0.25
Gmin = 0.00053587
vernier = 0.125
vernier = 0.0625
vernier = 0.03125
vernier = 0.015625
vernier = 0.0078125
Gmin = 0.000560602
vernier = 0.00390625
vernier = 0.00195312
vernier = 0.000976562
Gmin = 0.000559508
vernier = 0.000488281
Gmin = 0
Gmin stepping failed

Starting source stepping with srcstepmethod=0
Source Step = 3.0303%
Source Step = 33.3333%
Source Step = 63.6364%
Source Step = 88.6364%
vernier = 0.0625
Source Step = 89.7727%
Source Step = 90.0065%
Source Step = 90.0361%
Source Step = 90.0657%
Source Step = 90.0953%
Source Step = 90.1249%
Source Step = 90.1545%
Source Step = 90.1841%
Source Step = 90.2137%
Source Step = 90.2433%
Source Step = 90.2728%
Source Step = 90.3024%
Source Step = 90.332%
Source Step = 90.3616%
Source Step = 90.3912%
Source Step = 90.4208%
Source Step = 90.4504%
Source Step = 90.48%
Source Step = 90.5096%
Source Step = 90.5392%
Source Step = 90.5688%
Source Step = 90.5984%
Source Step = 90.628%
Source Step = 90.6576%
Source Step = 90.6871%
Source Step = 90.7167%
Source Step = 90.7463%
Source Step = 90.7759%
Source Step = 90.8055%
Source Step = 90.8351%
Source Step = 90.8647%
Source Step = 90.8943%
Source Step = 90.9239%
Source Step = 90.9535%
Source Step = 90.9831%
Source Step = 91.0127%
Source Step = 91.0423%
Source Step = 91.0719%
Source Step = 91.1014%
Source Step = 91.131%
Source Step = 91.1606%
Source Step = 91.1902%
Source Step = 91.2198%
Source Step = 91.2494%
Source Step = 91.279%
Source Step = 91.3086%
Source Step = 91.3382%
Source Step = 91.3678%
Source Step = 91.3974%
Source Step = 91.427%
Source Step = 91.4566%
Source Step = 91.4862%
Source Step = 91.5157%
Source Step = 91.5453%
Source Step = 91.5749%
Source Step = 91.6045%
Source Step = 91.6341%
Source Step = 91.6637%
Source Step = 91.6933%
Source Step = 91.7229%
Source Step = 91.7525%
Source Step = 91.7821%
Source Step = 91.8117%
Source Step = 91.8413%
Source Step = 91.8709%
Source Step = 91.9004%
Source Step = 91.93%
Source Step = 91.9596%
Source Step = 91.9892%
Source Step = 92.0188%
Source Step = 92.0484%
Source Step = 92.078%
Source Step = 92.1076%
Starting source stepping with srcstepmethod=1
Source Step = 3.0303%
vernier = 0.25
Source Step = 7.57576%
Source Step = 15.1515%
Source Step = 22.7273%
Source Step = 30.303%
Source Step = 37.8788%
vernier = 0.375
Source Step = 48.8636%
Source Step = 60.2273%
Source Step = 71.5909%
Source Step = 79.2614%
Source Step = 82.1023%
Source Step = 84.9432%
Source Step = 87.7841%
Source Step = 90.625%
Source Step = 92.6314%
vernier = 0.00146484
Source Step = 92.658%
Source Step = 92.7024%
Source Step = 92.7468%
Source Step = 92.7912%
Source Step = 92.8356%
Source Step = 92.88%
Source Step = 92.9244%
Source Step = 92.9687%
Source Step = 93.0131%
Source Step = 93.0575%
Source Step = 93.1019%
Source Step = 93.1463%
Source Step = 93.1907%
Source Step = 93.2351%
vernier = 0.00219727
Source Step = 93.2928%
Source Step = 93.3594%
Source Step = 93.426%
Source Step = 93.4925%
Source Step = 93.5591%
vernier = 0.0032959
Source Step = 93.6424%
Source Step = 93.7422%
Source Step = 93.8421%
Source Step = 93.942%
Source Step = 94.0419%
vernier = 0.00494385
Source Step = 94.1617%
Source Step = 94.3115%
Source Step = 94.4613%
Source Step = 94.6112%
Source Step = 94.761%
vernier = 0.00741577
Source Step = 94.9332%
Source Step = 95.158%
Source Step = 95.3827%
Source Step = 95.6074%
Source Step = 95.8321%
vernier = 0.0111237
Source Step = 96.0793%
Source Step = 96.4164%
Source Step = 96.7535%
Source Step = 97.0906%
Source Step = 97.4276%
vernier = 0.0166855
Source Step = 97.7816%
Source Step = 98.2872%
Source Step = 98.7928%
Source Step = 99.2984%
Source Step = 99.8041%
Source Step = 99.9241%
Source Step = 99.9557%
Source Step = 99.9874%
Source Step = 100%
Source Step = 100%
Source Step = 100%
Source Step = 100%
Source Step = 100%
Source Step = 100%
Source stepping succeeded in finding the operating point.

Early termination of direct N-R iteration.
Direct Newton iteration failed to find .op point.  (Use ".option noopiter" to skip.)
Starting Gmin stepping
Gmin = 10
Gmin = 1.07374
Gmin = 0.115292
Gmin = 0.0123794
Gmin = 0.00132923
vernier = 0.5
vernier = 0.25
Gmin = 0.00053587
vernier = 0.125
vernier = 0.0625
vernier = 0.03125
vernier = 0.015625
Gmin = 0.000556248
vernier = 0.0078125
vernier = 0.00390625
vernier = 0.00195312
vernier = 0.000976562
Gmin = 0.000556652
vernier = 0.000488281
Gmin = 0
Gmin stepping failed

Starting source stepping with srcstepmethod=1
Source Step = 3.0303%
Source Step = 3.0451%
Starting source stepping with srcstepmethod=0
Source Step = 3.0303%
Source Step = 33.3333%
Source Step = 63.6364%
Source Step = 93.9394%
Source Step = 99.1894%
vernier = 0.015625
Source Step = 99.0237%
Source stepping failed

Pseudo Transient failed in finding the operating point at 5 탎.
Early termination of direct N-R iteration.
Direct Newton iteration failed to find .op point.  (Use ".option noopiter" to skip.)
Starting Gmin stepping
Gmin = 10
Gmin = 1.07374
Gmin = 0.115292
Gmin = 0.0123794
Gmin = 0.00132923
vernier = 0.5
vernier = 0.25
Gmin = 0.00053587
vernier = 0.125
vernier = 0.0625
vernier = 0.03125
vernier = 0.015625
Gmin = 0.000554092
vernier = 0.0078125
vernier = 0.00390625
vernier = 0.00195312
vernier = 0.000976562
Gmin = 0.000552877
vernier = 0.000488281
vernier = 0.000651042
Gmin = 0.000552315
vernier = 0.000868055
vernier = 0.00115741
Gmin = 0.000551097
vernier = 0.00154321
Gmin = 0.000549188
vernier = 0.00205761
vernier = 0.00274348
Gmin = 0.000545996
vernier = 0.00365797
vernier = 0.0048773
Gmin = 0.000540946
vernier = 0.00650306
Gmin = 0.000533094
vernier = 0.00867074
vernier = 0.011561
Gmin = 0.000520173
vernier = 0.0154146
vernier = 0.0205529
Gmin = 0.000500227
vernier = 0.0274038
Gmin = 0.000470406
vernier = 0.0365384
vernier = 0.0182692
vernier = 0.0091346
Gmin = 0.000451539
vernier = 0.0045673
vernier = 0.00228365
vernier = 0.00304487
Gmin = 0.000450594
vernier = 0.00405982
Gmin = 0.000446499
vernier = 0.00541309
vernier = 0.00721745
Gmin = 0.000439708
vernier = 0.00962327
vernier = 0.012831
Gmin = 0.000429097
vernier = 0.017108
Gmin = 0.000412925
vernier = 0.0228107
vernier = 0.0304143
Gmin = 0.000387164
vernier = 0.0405523
vernier = 0.0540698
Gmin = 0.000349436
vernier = 0.072093
Gmin = 0.000297507
vernier = 0.096124
vernier = 0.128165
Gmin = 0.000227421
vernier = 0.170887
vernier = 0.227849
Gmin = 0.000148698
vernier = 0.303799
Gmin = 7.67921e-05
vernier = 0.405065
vernier = 0.540087
Gmin = 2.59386e-05
vernier = 0.720115
vernier = 0.360058
vernier = 0.180029
vernier = 0.0900144
vernier = 0.0450072
vernier = 0.0225036
vernier = 0.0112518
vernier = 0.0056259
Gmin = 2.01344e-05
vernier = 0.00281295
vernier = 0.00140648
vernier = 0.000703238
vernier = 0.000527428
Gmin = 0
Gmin stepping failed

Starting source stepping with srcstepmethod=0
Source Step = 3.0303%
Source Step = 33.3333%
Source Step = 63.6364%
Source Step = 88.6364%
vernier = 0.0625
Source Step = 87.8995%
Starting source stepping with srcstepmethod=1
Source Step = 3.0303%
vernier = 0.25
Source Step = 7.57576%
Source Step = 15.1515%
Source stepping failed

Pseudo Transient failed in finding the operating point at 5 탎.
Direct Newton iteration failed to find .op point.  (Use ".option noopiter" to skip.)
Starting Gmin stepping
Gmin = 10
Gmin = 1.07374
Gmin = 0.115292
Gmin = 0.0123794
Gmin = 0.00132923
vernier = 0.5
vernier = 0.25
Gmin = 0.00053587
vernier = 0.125
vernier = 0.166667
vernier = 0.0833333
vernier = 0.0416667
Gmin = 0.00046864
vernier = 0.0208333
vernier = 0.0104167
vernier = 0.00520833
vernier = 0.00260417
vernier = 0.00130208
vernier = 0.000651042
vernier = 0.000488281
Gmin = 0
Gmin stepping failed

Starting source stepping with srcstepmethod=0
Source Step = 3.0303%
Source Step = 33.3333%
Source Step = 63.6364%
Source Step = 88.6364%
vernier = 0.0625
Source Step = 87.8995%
Source Step = 87.9291%
Source Step = 87.9587%
Source Step = 87.9883%
Source Step = 88.0179%
vernier = 0.00146484
Source Step = 88.0519%
Source Step = 88.0963%
Source Step = 88.1407%
Source Step = 88.1851%
Source Step = 88.2295%
vernier = 0.00219727
Source Step = 88.2783%
Source Step = 88.3449%
Source Step = 88.4115%
Source Step = 88.478%
Source Step = 88.5446%
vernier = 0.0032959
Source Step = 88.6145%
Source Step = 88.7144%
Source Step = 88.8143%
Source Step = 88.9142%
Source Step = 89.014%
Source Step = 89.1139%
vernier = 0.00494385
Source Step = 89.2637%
Source Step = 89.4135%
Source Step = 89.5634%
Source Step = 89.7132%
Source Step = 89.863%
vernier = 0.00741577
Source Step = 90.0072%
Starting source stepping with srcstepmethod=1
Source Step = 3.0303%
vernier = 0.25
Source Step = 7.57576%
Source Step = 15.1515%
Source Step = 22.7273%
Source Step = 30.303%
Source Step = 37.8788%
vernier = 0.375
Source Step = 48.8636%
Source Step = 60.2273%
Source Step = 71.5909%
Source Step = 82.9545%
Source Step = 94.3182%
vernier = 0.5625
Source Step = 99.6392%
Source Step = 99.6925%
Source Step = 99.7591%
Source Step = 99.8256%
Source Step = 99.8922%
Source Step = 99.9588%
Source Step = 100%
Source Step = 100%
Source Step = 100%
Source Step = 100%
Source Step = 100%
Source Step = 100%
Source Step = 100%
Source Step = 100%
Source stepping failed

Pseudo Transient failed in finding the operating point at 5 탎.
Direct Newton iteration failed to find .op point.  (Use ".option noopiter" to skip.)
Starting Gmin stepping
Gmin = 10
Gmin = 1.07374
Gmin = 0.115292
Gmin = 0.0123794
Gmin = 0.00132923
vernier = 0.5
vernier = 0.25
Gmin = 0.00053587
vernier = 0.125
vernier = 0.166667
vernier = 0.0833333
vernier = 0.0416667
Gmin = 0.00046864
vernier = 0.0208333
vernier = 0.0104167
vernier = 0.00520833
vernier = 0.00260417
vernier = 0.00130208
vernier = 0.000651042
vernier = 0.000488281
Gmin = 0
Gmin stepping failed

Starting source stepping with srcstepmethod=0
Source Step = 3.0303%
Source Step = 33.3333%
Source Step = 63.6364%
Source Step = 88.6364%
vernier = 0.0625
Source Step = 87.8995%
Source Step = 87.9291%
Source Step = 87.9587%
Source Step = 87.9883%
Source Step = 88.0179%
vernier = 0.00146484
Source Step = 88.0519%
Source Step = 88.0963%
Source Step = 88.1407%
Source Step = 88.1851%
Source Step = 88.2295%
vernier = 0.00219727
Source Step = 88.2783%
Source Step = 88.3449%
Source Step = 88.4115%
Source Step = 88.478%
Source Step = 88.5446%
vernier = 0.0032959
Source Step = 88.6145%
Source Step = 88.7144%
Source Step = 88.8143%
Source Step = 88.9142%
Source Step = 89.014%
Source Step = 89.1139%
vernier = 0.00494385
Source Step = 89.2637%
Source Step = 89.4135%
Source Step = 89.5634%
Source Step = 89.7132%
Source Step = 89.863%
vernier = 0.00741577
Source Step = 90.0072%
Starting source stepping with srcstepmethod=1
Source Step = 3.0303%
vernier = 0.25
Source Step = 7.57576%
Source Step = 9.39867%
Source stepping failed

Pseudo Transient failed in finding the operating point at 5 탎.
Direct Newton iteration failed to find .op point.  (Use ".option noopiter" to skip.)
Starting Gmin stepping
Gmin = 10
Gmin = 1.07374
Gmin = 0.115292
Gmin = 0.0123794
Gmin = 0.00132923
vernier = 0.5
vernier = 0.25
Gmin = 0.00053587
vernier = 0.125
vernier = 0.166667
vernier = 0.0833333
vernier = 0.0416667
Gmin = 0.00046864
vernier = 0.0208333
vernier = 0.0104167
vernier = 0.00520833
vernier = 0.00260417
vernier = 0.00130208
vernier = 0.000651042
vernier = 0.000488281
Gmin = 0
Gmin stepping failed

Starting source stepping with srcstepmethod=0
Source Step = 3.0303%
Source Step = 33.3333%
Source Step = 63.6364%
Source Step = 88.6364%
vernier = 0.0625
Source Step = 89.7727%
Source Step = 90.0065%
Source Step = 90.0361%
Source Step = 90.0657%
Source Step = 90.0953%
Source Step = 90.1249%
Source Step = 90.1545%
Source Step = 90.1841%
Source Step = 90.2137%
Source Step = 90.2433%
Source Step = 90.2728%
Source Step = 90.3024%
Source Step = 90.332%
Source Step = 90.3616%
Source Step = 90.3912%
Source Step = 90.4208%
Source Step = 90.4504%
Source Step = 90.48%
Source Step = 90.5096%
Source Step = 90.5392%
Source Step = 90.5688%
Source Step = 90.5984%
Source Step = 90.628%
Source Step = 90.6576%
Source Step = 90.6871%
Source Step = 90.7167%
Source Step = 90.7463%
Source Step = 90.7759%
Source Step = 90.8055%
Source Step = 90.8351%
vernier = 0.00146484
Source Step = 90.8795%
Source Step = 90.9239%
Source Step = 90.9683%
Source Step = 91.0127%
Source Step = 91.0571%
vernier = 0.00219727
Source Step = 91.1214%
Source Step = 91.188%
Source Step = 91.2546%
Source Step = 91.3212%
Source Step = 91.3878%
vernier = 0.0032959
Source Step = 91.481%
Source Step = 91.5808%
Source Step = 91.6807%
Source Step = 91.7806%
Source Step = 91.8805%
vernier = 0.00494385
Source Step = 92.0153%
Source Step = 92.1651%
Source Step = 92.3149%
Source Step = 92.4647%
Source Step = 92.6146%
vernier = 0.00741577
Source Step = 92.8093%
Source Step = 93.034%
Source Step = 93.2588%
Source Step = 93.4835%
Source Step = 93.7082%
vernier = 0.0111237
Source Step = 93.9891%
Source Step = 94.3262%
Source Step = 94.6633%
Source Step = 95.0003%
Source Step = 95.3374%
vernier = 0.0166855
Source Step = 95.7419%
Source Step = 96.2475%
Source Step = 96.7532%
Source Step = 97.2588%
Source Step = 97.7644%
vernier = 0.0250282
Source Step = 98.3459%
Source Step = 99.1043%
Source Step = 99.8627%
Source stepping succeeded in finding the operating point.

Early termination of direct N-R iteration.
Direct Newton iteration failed to find .op point.  (Use ".option noopiter" to skip.)
Starting Gmin stepping
Gmin = 10
Gmin = 1.07374
Gmin = 0.115292
Gmin = 0.0123794
Gmin = 0.00132923
vernier = 0.5
vernier = 0.25
vernier = 0.125
vernier = 0.0625
vernier = 0.03125
Gmin = 0.000544452
vernier = 0.015625
vernier = 0.0078125
vernier = 0.00390625
vernier = 0.00195312
vernier = 0.000976562
vernier = 0.000488281
Gmin = 0
Gmin stepping failed

Starting source stepping with srcstepmethod=0
Source Step = 3.0303%
Source Step = 33.3333%
Source Step = 63.6364%
Source Step = 88.6364%
vernier = 0.0625
Source Step = 89.7727%
Source Step = 90.0065%
Source Step = 90.0361%
Source Step = 90.0657%
Source Step = 90.0953%
Source Step = 90.1249%
Source Step = 90.1545%
Source Step = 90.1841%
Source Step = 90.2137%
Source Step = 90.2433%
Source Step = 90.2728%
Source Step = 90.3024%
Source Step = 90.332%
Source Step = 90.3616%
Source Step = 90.3912%
Source Step = 90.4208%
Source Step = 90.4504%
Source Step = 90.48%
Source Step = 90.5096%
Source Step = 90.5392%
Source Step = 90.5688%
Source Step = 90.5984%
vernier = 0.00146484
Source Step = 90.6368%
Source Step = 90.6812%
Source Step = 90.7256%
Source Step = 90.77%
Source Step = 90.8144%
vernier = 0.00219727
Source Step = 90.8699%
Source Step = 90.9365%
Source Step = 91.003%
Source Step = 91.0696%
Source Step = 91.1362%
vernier = 0.0032959
Source Step = 91.2161%
Source Step = 91.316%
Source Step = 91.4159%
Source Step = 91.5157%
Source Step = 91.6156%
vernier = 0.00494385
Source Step = 91.7305%
Source Step = 91.8803%
Source Step = 92.0301%
Source Step = 92.1799%
Source Step = 92.3297%
vernier = 0.00741577
Source Step = 92.4945%
Source Step = 92.7192%
Source Step = 92.944%
Source Step = 93.1687%
Source Step = 93.3934%
vernier = 0.0111237
Source Step = 93.6294%
Source Step = 93.9664%
Source Step = 94.3035%
Source Step = 94.6406%
Source Step = 94.9777%
Source Step = 95.3148%
vernier = 0.0166855
Source Step = 95.8204%
Source Step = 96.326%
Source Step = 96.8316%
Source Step = 97.3372%
Source Step = 97.8429%
vernier = 0.0250282
Source Step = 98.576%
Source Step = 99.3345%
Source stepping succeeded in finding the operating point.

Direct Newton iteration failed to find .op point.  (Use ".option noopiter" to skip.)
Starting Gmin stepping
Gmin = 10
Gmin = 1.07374
Gmin = 0.115292
Gmin = 0.0123794
Gmin = 0.00132923
vernier = 0.5
vernier = 0.25
vernier = 0.125
vernier = 0.0625
vernier = 0.03125
Gmin = 0.000544452
vernier = 0.015625
vernier = 0.0078125
vernier = 0.00390625
vernier = 0.00195312
vernier = 0.000976562
vernier = 0.000488281
Gmin = 0
Gmin stepping failed

Starting source stepping with srcstepmethod=0
Source Step = 3.0303%
Source Step = 33.3333%
Source Step = 63.6364%
Source Step = 88.6364%
vernier = 0.0625
Source Step = 87.8995%
Source Step = 87.9291%
Source Step = 87.9587%
Source Step = 87.9883%
Source Step = 88.0179%
Source Step = 88.0475%
vernier = 0.00146484
Source Step = 88.0904%
Source Step = 88.1348%
Source Step = 88.1792%
Source Step = 88.2235%
Source Step = 88.2679%
vernier = 0.00219727
Source Step = 88.3301%
Source Step = 88.3967%
Source Step = 88.4632%
Source Step = 88.5298%
Source Step = 88.5964%
vernier = 0.0032959
Source Step = 88.6863%
Source Step = 88.7862%
Source Step = 88.8861%
Source Step = 88.9859%
Source Step = 89.0858%
vernier = 0.00494385
Source Step = 89.2156%
Source Step = 89.3655%
Source Step = 89.5153%
Source Step = 89.6651%
Source Step = 89.8149%
vernier = 0.00741577
Source Step = 90.0022%
Source Step = 90.1876%
Source Step = 90.2437%
Source Step = 90.2999%
Source Step = 90.3561%
Source Step = 90.4123%
Source Step = 90.4685%
Source Step = 90.5246%
Source Step = 90.5808%
Source Step = 90.637%
Source Step = 90.6932%
Source Step = 90.7494%
Source Step = 90.8055%
Source Step = 90.8617%
Source Step = 90.9179%
Source Step = 90.9741%
Source Step = 91.0303%
Source Step = 91.0864%
Source Step = 91.1426%
Source Step = 91.1988%
Source Step = 91.255%
Source Step = 91.3112%
Source Step = 91.3673%
Source Step = 91.4235%
Source Step = 91.4797%
vernier = 0.00278091
Source Step = 91.5499%
Source Step = 91.6342%
Source Step = 91.7185%
Source Step = 91.8027%
Source Step = 91.887%
vernier = 0.00417137
Source Step = 91.9881%
Source Step = 92.1145%
Source Step = 92.2409%
Source Step = 92.3673%
Source Step = 92.4938%
vernier = 0.00625706
Source Step = 92.6391%
Source Step = 92.8287%
Source Step = 93.0183%
Source Step = 93.2079%
Source Step = 93.3975%
vernier = 0.00938559
Source Step = 93.6061%
Source Step = 93.8905%
Source Step = 94.1749%
Source Step = 94.4594%
Source Step = 94.7438%
vernier = 0.0140784
Source Step = 95.0424%
Source Step = 95.469%
Source Step = 95.8956%
Source Step = 96.3222%
Source Step = 96.7489%
Source Step = 97.1755%
vernier = 0.0211176
Source Step = 97.8154%
Source Step = 98.4553%
Source Step = 99.0953%
Source Step = 99.7352%
Source stepping succeeded in finding the operating point.

Direct Newton iteration failed to find .op point.  (Use ".option noopiter" to skip.)
Starting Gmin stepping
Gmin = 10
Gmin = 1.07374
Gmin = 0.115292
Gmin = 0.0123794
Gmin = 0.00132923
vernier = 0.5
vernier = 0.25
vernier = 0.125
vernier = 0.0625
vernier = 0.03125
Gmin = 0.000544452
vernier = 0.015625
vernier = 0.0078125
vernier = 0.00390625
vernier = 0.00195312
vernier = 0.000976562
vernier = 0.000488281
Gmin = 0
Gmin stepping failed

Starting source stepping with srcstepmethod=0
Source Step = 3.0303%
Source Step = 33.3333%
Source Step = 63.6364%
Source Step = 88.6364%
vernier = 0.0625
Source Step = 89.7727%
Source Step = 90.0065%
Source Step = 90.0361%
Starting source stepping with srcstepmethod=1
Source Step = 3.0303%
vernier = 0.25
Source Step = 7.57576%
Source Step = 15.1515%
Source Step = 22.7273%
Source Step = 30.303%
Source Step = 37.8788%
vernier = 0.375
Source Step = 48.8636%
Source Step = 57.3864%
Source Step = 59.517%
Source Step = 60.2273%
Source Step = 60.8132%
Source Step = 60.8665%
Source stepping failed

Pseudo Transient failed in finding the operating point at 5 탎.
Direct Newton iteration failed to find .op point.  (Use ".option noopiter" to skip.)
Starting Gmin stepping
Gmin = 10
Gmin = 1.07374
Gmin = 0.115292
Gmin = 0.0123794
Gmin = 0.00132923
vernier = 0.5
vernier = 0.25
vernier = 0.125
vernier = 0.0625
vernier = 0.03125
Gmin = 0.000544452
vernier = 0.015625
vernier = 0.0078125
vernier = 0.00390625
vernier = 0.00195312
vernier = 0.000976562
vernier = 0.000488281
Gmin = 0
Gmin stepping failed

Starting source stepping with srcstepmethod=0
Source Step = 3.0303%
Source Step = 33.3333%
Source Step = 63.6364%
Source Step = 88.6364%
vernier = 0.0625
Source Step = 87.8995%
Source Step = 87.9291%
Source Step = 87.9587%
Source Step = 87.9883%
Source Step = 88.0179%
vernier = 0.00146484
Source Step = 88.0549%
Source Step = 88.0993%
Source Step = 88.1436%
Source Step = 88.188%
Source Step = 88.2324%
vernier = 0.00219727
Source Step = 88.2857%
Source Step = 88.3523%
Source Step = 88.4189%
Source Step = 88.4854%
Source Step = 88.552%
vernier = 0.0032959
Source Step = 88.6286%
Source Step = 88.7285%
Source Step = 88.8283%
Source Step = 88.9282%
Source Step = 89.0281%
vernier = 0.00494385
Source Step = 89.138%
Source Step = 89.2878%
Source Step = 89.4376%
Source Step = 89.5874%
Source Step = 89.7372%
vernier = 0.00741577
Source Step = 89.8945%
Source Step = 90.0125%
Starting source stepping with srcstepmethod=1
Source Step = 3.0303%
vernier = 0.25
Source Step = 7.57576%
Source Step = 15.1515%
Source Step = 22.7273%
Source Step = 30.303%
Source Step = 37.8788%
vernier = 0.375
Source Step = 48.8636%
Source Step = 60.2273%
Source Step = 71.5909%
Source Step = 77.4858%
Source Step = 78.196%
Source Step = 78.3558%
Source stepping failed

Pseudo Transient failed in finding the operating point at 5 탎.
Direct Newton iteration failed to find .op point.  (Use ".option noopiter" to skip.)
Starting Gmin stepping
Gmin = 10
Gmin = 1.07374
Gmin = 0.115292
Gmin = 0.0123794
Gmin = 0.00132923
vernier = 0.5
vernier = 0.25
vernier = 0.125
vernier = 0.0625
vernier = 0.03125
Gmin = 0.000544452
vernier = 0.015625
vernier = 0.0078125
vernier = 0.00390625
vernier = 0.00195312
vernier = 0.000976562
vernier = 0.000488281
Gmin = 0
Gmin stepping failed

Starting source stepping with srcstepmethod=0
Source Step = 3.0303%
Source Step = 33.3333%
Source Step = 63.6364%
Source Step = 88.6364%
vernier = 0.0625
Source Step = 87.8995%
Source Step = 87.9291%
Source Step = 87.9587%
Source Step = 87.9883%
Source Step = 88.0179%
vernier = 0.00146484
Source Step = 88.0534%
Source Step = 88.0978%
Source Step = 88.1422%
Source Step = 88.1866%
Source Step = 88.2309%
vernier = 0.00219727
Source Step = 88.282%
Source Step = 88.3486%
Source Step = 88.4152%
Source Step = 88.4817%
Source Step = 88.5483%
vernier = 0.0032959
Source Step = 88.6216%
Source Step = 88.7214%
Source Step = 88.8213%
Source Step = 88.9212%
Source Step = 89.0211%
vernier = 0.00494385
Source Step = 89.1259%
Source Step = 89.2758%
Source Step = 89.4256%
Source Step = 89.5754%
Source Step = 89.7252%
Source Step = 89.875%
vernier = 0.00741577
Source Step = 90.0098%
Source Step = 90.066%
Source Step = 90.1222%
Source Step = 90.1784%
Source Step = 90.2346%
Source Step = 90.2907%
Source Step = 90.3469%
Source Step = 90.4031%
Source Step = 90.4593%
Source Step = 90.5155%
Source Step = 90.5716%
Source Step = 90.6278%
Source Step = 90.684%
Source Step = 90.7402%
Source Step = 90.7964%
Source Step = 90.8525%
Source Step = 90.9087%
Source Step = 90.9649%
Source Step = 91.0211%
Source Step = 91.0773%
Source Step = 91.1334%
Source Step = 91.1896%
Source Step = 91.2458%
Source Step = 91.302%
Source Step = 91.3582%
vernier = 0.00278091
Source Step = 91.4312%
Source Step = 91.5155%
Source Step = 91.5997%
Source Step = 91.684%
Source Step = 91.7683%
vernier = 0.00417137
Source Step = 91.8736%
Source Step = 92%
Source Step = 92.1264%
Source Step = 92.2528%
Source Step = 92.3792%
vernier = 0.00625706
Source Step = 92.5309%
Source Step = 92.7205%
Source Step = 92.9101%
Source Step = 93.0997%
Source Step = 93.2894%
vernier = 0.00938559
Source Step = 93.5074%
Source Step = 93.7918%
Source Step = 94.0762%
Source Step = 94.3606%
Source Step = 94.645%
vernier = 0.0140784
Source Step = 94.9579%
Source Step = 95.3845%
Source Step = 95.8111%
Source Step = 96.2378%
Source Step = 96.6644%
vernier = 0.0211176
Source Step = 97.1123%
Source Step = 97.7522%
Source Step = 98.3922%
Source Step = 99.0321%
Source Step = 99.672%
Source stepping succeeded in finding the operating point.

Direct Newton iteration failed to find .op point.  (Use ".option noopiter" to skip.)
Starting Gmin stepping
Gmin = 10
Gmin = 1.07374
Gmin = 0.115292
Gmin = 0.0123794
Gmin = 0.00132923
vernier = 0.5
vernier = 0.25
vernier = 0.125
vernier = 0.0625
vernier = 0.03125
Gmin = 0.000544452
vernier = 0.015625
vernier = 0.0078125
vernier = 0.00390625
vernier = 0.00195312
vernier = 0.000976562
vernier = 0.000488281
Gmin = 0
Gmin stepping failed

Starting source stepping with srcstepmethod=0
Source Step = 3.0303%
Source Step = 33.3333%
Source Step = 63.6364%
Source Step = 88.6364%
vernier = 0.0625
Source Step = 87.8995%
Source Step = 87.9291%
Source Step = 87.9587%
Source Step = 87.9883%
Source Step = 88.0179%
vernier = 0.00146484
Source Step = 88.0549%
Source Step = 88.0993%
Source Step = 88.1436%
Source Step = 88.188%
Source Step = 88.2324%
vernier = 0.00219727
Source Step = 88.2857%
Source Step = 88.3523%
Source Step = 88.4189%
Source Step = 88.4854%
Source Step = 88.552%
vernier = 0.0032959
Source Step = 88.6286%
Source Step = 88.7285%
Source Step = 88.8283%
Source Step = 88.9282%
Source Step = 89.0281%
vernier = 0.00494385
Source Step = 89.138%
Source Step = 89.2878%
Source Step = 89.4376%
Source Step = 89.5874%
Source Step = 89.7372%
vernier = 0.00741577
Source Step = 89.8945%
Source Step = 90.0125%
Starting source stepping with srcstepmethod=1
Source Step = 3.0303%
vernier = 0.25
Source Step = 7.57576%
Source Step = 15.1515%
Source Step = 22.7273%
Source Step = 30.303%
Source Step = 37.8788%
vernier = 0.375
Source Step = 42.6136%
Source Step = 45.4545%
Source Step = 48.2955%
Source Step = 51.1364%
Source Step = 53.9773%
vernier = 0.140625
Source Step = 57.5284%
Source Step = 59.1264%
Source Step = 60.1918%
Source Step = 61.2571%
Source Step = 62.3224%
Source Step = 63.3878%
vernier = 0.0527344
Source Step = 64.2534%
Source Step = 64.6529%
Source Step = 65.0524%
Source Step = 65.4519%
Source Step = 65.8514%
vernier = 0.0197754
Source Step = 66.2908%
Source Step = 66.8901%
Source Step = 67.0699%
Source Step = 67.2197%
vernier = 0.00123596
Source stepping failed

Pseudo Transient failed in finding the operating point at 5 탎.
Early termination of direct N-R iteration.
Direct Newton iteration failed to find .op point.  (Use ".option noopiter" to skip.)
Starting Gmin stepping
Gmin = 10
Gmin = 1.07374
Gmin = 0.115292
Gmin = 0.0123794
Gmin = 0.00132923
vernier = 0.5
vernier = 0.25
vernier = 0.125
vernier = 0.0625
vernier = 0.03125
Gmin = 0.000544452
vernier = 0.015625
vernier = 0.0078125
vernier = 0.00390625
vernier = 0.00195312
vernier = 0.000976562
vernier = 0.000488281
Gmin = 0
Gmin stepping failed

Starting source stepping with srcstepmethod=0
Source Step = 3.0303%
Source Step = 33.3333%
Source Step = 63.6364%
Source Step = 88.6364%
vernier = 0.0625
Source Step = 87.8995%
Starting source stepping with srcstepmethod=1
Source Step = 3.0303%
vernier = 0.25
Source Step = 7.57576%
Source Step = 15.1515%
Source Step = 22.7273%
Source Step = 30.303%
Source Step = 37.8788%
vernier = 0.375
Source Step = 48.8636%
Source Step = 60.2273%
Source Step = 71.5909%
Source Step = 82.9545%
Source Step = 94.3182%
vernier = 0.5625
Source Step = 99.0067%
Source Step = 99.0732%
Source Step = 99.1398%
Source Step = 99.2064%
Source Step = 99.273%
Source Step = 99.3396%
Source Step = 99.4062%
Source Step = 99.4727%
Source Step = 99.5393%
Source Step = 99.6059%
Source Step = 99.6725%
Source Step = 99.7391%
Source Step = 99.8057%
Source Step = 99.8722%
Source Step = 99.9388%
Source stepping failed

Pseudo Transient failed in finding the operating point at 5 탎.
Early termination of direct N-R iteration.
Direct Newton iteration failed to find .op point.  (Use ".option noopiter" to skip.)
Starting Gmin stepping
Gmin = 10
Gmin = 1.07374
Gmin = 0.115292
Gmin = 0.0123794
Gmin = 0.00132923
vernier = 0.5
vernier = 0.25
vernier = 0.125
vernier = 0.0625
vernier = 0.03125
Gmin = 0.000544452
vernier = 0.015625
vernier = 0.0078125
vernier = 0.00390625
vernier = 0.00195312
vernier = 0.000976562
vernier = 0.000488281
Gmin = 0
Gmin stepping failed

Starting source stepping with srcstepmethod=0
Source Step = 3.0303%
Source Step = 33.3333%
Source Step = 63.6364%
Source Step = 84.0909%
Source Step = 85.7955%
Source Step = 87.6894%
Source Step = 89.5833%
Source Step = 89.9769%
Starting source stepping with srcstepmethod=1
Source Step = 3.0303%
vernier = 0.25
Source Step = 7.57576%
Source Step = 15.1515%
Source Step = 22.7273%
Source Step = 30.303%
Source Step = 37.8788%
vernier = 0.375
Source Step = 48.8636%
Source Step = 60.2273%
Source Step = 71.5909%
vernier = 0.09375
Source Step = 70.8629%
Source Step = 71.0405%
Source Step = 71.218%
vernier = 0.00146484
Source stepping failed

Pseudo Transient failed in finding the operating point at 5 탎.
Early termination of direct N-R iteration.
Direct Newton iteration failed to find .op point.  (Use ".option noopiter" to skip.)
Starting Gmin stepping
Gmin = 10
Gmin = 1.07374
Gmin = 0.115292
Gmin = 0.0123794
Gmin = 0.00132923
vernier = 0.5
vernier = 0.25
vernier = 0.125
vernier = 0.0625
vernier = 0.03125
Gmin = 0.000544452
vernier = 0.015625
vernier = 0.0078125
vernier = 0.00390625
vernier = 0.00195312
vernier = 0.000976562
vernier = 0.000488281
Gmin = 0
Gmin stepping failed

Starting source stepping with srcstepmethod=0
Source Step = 3.0303%
Source Step = 33.3333%
Source Step = 63.6364%
Source Step = 84.0909%
Source Step = 85.7955%
Source Step = 87.6894%
Source Step = 89.5833%
Source Step = 89.9769%
Starting source stepping with srcstepmethod=1
Source Step = 3.0303%
vernier = 0.25
Source Step = 7.57576%
Source Step = 15.1515%
Source Step = 22.7273%
Source Step = 30.303%
Source Step = 37.8788%
vernier = 0.375
Source Step = 46.875%
Source Step = 49.7159%
Source Step = 50.2308%
Source Step = 50.4084%
Source Step = 50.5859%
Source Step = 50.7635%
Source Step = 50.9411%
Source Step = 51.1186%
vernier = 0.00878906
Source Step = 51.2784%
Source stepping failed

Pseudo Transient failed in finding the operating point at 5 탎.
Early termination of direct N-R iteration.
Direct Newton iteration failed to find .op point.  (Use ".option noopiter" to skip.)
Starting Gmin stepping
Gmin = 10
Gmin = 1.07374
Gmin = 0.115292
Gmin = 0.0123794
Gmin = 0.00132923
vernier = 0.5
vernier = 0.25
vernier = 0.125
vernier = 0.0625
vernier = 0.03125
Gmin = 0.000544452
vernier = 0.015625
vernier = 0.0078125
vernier = 0.00390625
vernier = 0.00195312
vernier = 0.000976562
vernier = 0.000488281
Gmin = 0
Gmin stepping failed

Starting source stepping with srcstepmethod=0
Source Step = 3.0303%
Source Step = 33.3333%
Source Step = 63.6364%
Source Step = 84.0909%
Source Step = 85.7955%
Source Step = 87.6894%
Source Step = 89.5833%
Source Step = 89.9769%
Starting source stepping with srcstepmethod=1
Source Step = 3.0303%
vernier = 0.25
Source Step = 7.57576%
Source Step = 15.1515%
Source Step = 22.7273%
Source Step = 30.303%
Source Step = 37.8788%
vernier = 0.375
Source Step = 48.8636%
Source Step = 56.5341%
Source Step = 58.2386%
vernier = 0.00585938
Source Step = 58.2608%
Source stepping failed

Pseudo Transient failed in finding the operating point at 5 탎.
Direct Newton iteration failed to find .op point.  (Use ".option noopiter" to skip.)
Starting Gmin stepping
Gmin = 10
Gmin = 1.07374
Gmin = 0.115292
Gmin = 0.0123794
Gmin = 0.00132923
vernier = 0.5
vernier = 0.25
vernier = 0.125
vernier = 0.0625
vernier = 0.03125
Gmin = 0.000544452
vernier = 0.015625
vernier = 0.0078125
vernier = 0.00390625
vernier = 0.00195312
vernier = 0.000976562
vernier = 0.000488281
Gmin = 0
Gmin stepping failed

Starting source stepping with srcstepmethod=0
Source Step = 3.0303%
Source Step = 33.3333%
Source Step = 63.6364%
Source Step = 84.0909%
Source Step = 89.4413%
vernier = 0.00390625
Starting source stepping with srcstepmethod=1
Source Step = 3.0303%
vernier = 0.25
Source Step = 7.57576%
Source Step = 15.1515%
Source Step = 22.7273%
Source Step = 30.303%
Source Step = 37.8788%
vernier = 0.375
Source Step = 48.8636%
Source Step = 60.2273%
Source Step = 71.5909%
Source Step = 82.9545%
Source Step = 94.3182%
vernier = 0.5625
Source Step = 99.0067%
Source Step = 99.0732%
Source Step = 99.1398%
Source Step = 99.2064%
Source Step = 99.273%
Source Step = 99.3396%
Source Step = 99.4062%
Source Step = 99.4727%
Source Step = 99.5393%
Source Step = 99.6059%
Source Step = 99.6725%
Source Step = 99.7391%
Source Step = 99.8057%
Source stepping failed

Pseudo Transient failed in finding the operating point at 5 탎.
Early termination of direct N-R iteration.
Direct Newton iteration failed to find .op point.  (Use ".option noopiter" to skip.)
Starting Gmin stepping
Gmin = 10
Gmin = 1.07374
Gmin = 0.115292
Gmin = 0.0123794
Gmin = 0.00132923
vernier = 0.5
vernier = 0.25
vernier = 0.125
vernier = 0.0625
vernier = 0.03125
Gmin = 0.000544452
vernier = 0.015625
vernier = 0.0078125
vernier = 0.00390625
vernier = 0.00195312
vernier = 0.000976562
vernier = 0.000488281
Gmin = 0
Gmin stepping failed

Starting source stepping with srcstepmethod=0
Source Step = 3.0303%
Source Step = 33.3333%
Source Step = 63.6364%
Source Step = 84.0909%
Source Step = 89.4413%
vernier = 0.00390625
Starting source stepping with srcstepmethod=1
Source Step = 3.0303%
vernier = 0.25
Source Step = 7.57576%
Source Step = 15.1515%
Source Step = 22.7273%
Source Step = 30.303%
Source Step = 37.8788%
vernier = 0.375
Source Step = 43.4659%
Source Step = 44.7443%
Source Step = 45.4545%
Source Step = 46.1648%
Source Step = 46.3778%
Source Step = 46.5554%
Source Step = 46.733%
Source Step = 46.9105%
Source Step = 47.0881%
vernier = 0.00878906
Source Step = 47.2812%
Source Step = 47.3477%
Source stepping failed

Pseudo Transient failed in finding the operating point at 5 탎.
Direct Newton iteration failed to find .op point.  (Use ".option noopiter" to skip.)
Starting Gmin stepping
Gmin = 10
Gmin = 1.07374
Gmin = 0.115292
Gmin = 0.0123794
Gmin = 0.00132923
vernier = 0.5
vernier = 0.25
vernier = 0.125
vernier = 0.0625
vernier = 0.03125
Gmin = 0.000544452
vernier = 0.015625
vernier = 0.0078125
vernier = 0.00390625
vernier = 0.00195312
vernier = 0.000976562
vernier = 0.000488281
Gmin = 0
Gmin stepping failed

Starting source stepping with srcstepmethod=0
Source Step = 3.0303%
Source Step = 33.3333%
Source Step = 63.6364%
Source Step = 84.0909%
Source Step = 89.4413%
vernier = 0.00390625
Starting source stepping with srcstepmethod=1
Source Step = 3.0303%
vernier = 0.25
Source Step = 7.57576%
Source Step = 15.1515%
Source Step = 22.7273%
Source Step = 30.303%
Source Step = 37.8788%
vernier = 0.375
Source Step = 48.8636%
Source Step = 60.2273%
Source Step = 71.5909%
Source Step = 76.7045%
Source Step = 78.196%
vernier = 0.00585938
Source Step = 78.3026%
Source Step = 78.4091%
Source stepping failed

Pseudo Transient failed in finding the operating point at 5 탎.
Early termination of direct N-R iteration.
Direct Newton iteration failed to find .op point.  (Use ".option noopiter" to skip.)
Starting Gmin stepping
Gmin = 10
Gmin = 1.07374
Gmin = 0.115292
Gmin = 0.0123794
Gmin = 0.00132923
vernier = 0.5
vernier = 0.25
vernier = 0.125
vernier = 0.0625
vernier = 0.03125
Gmin = 0.000544452
vernier = 0.015625
vernier = 0.0078125
vernier = 0.00390625
vernier = 0.00195312
vernier = 0.000976562
vernier = 0.000488281
Gmin = 0
Gmin stepping failed

Starting source stepping with srcstepmethod=0
Source Step = 3.0303%
Source Step = 33.3333%
Source Step = 63.6364%
Source Step = 84.0909%
vernier = 0.0625
Source Step = 85.2273%
Source Step = 87.1212%
Source Step = 89.0152%
Source Step = 89.968%
Starting source stepping with srcstepmethod=1
Source Step = 3.0303%
vernier = 0.25
Source Step = 7.57576%
Source Step = 15.1515%
Source Step = 22.7273%
Source Step = 30.303%
Source Step = 37.8788%
vernier = 0.375
Source Step = 48.8636%
Source Step = 53.9062%
Source Step = 53.995%
Source Step = 54.0394%
Source Step = 54.0838%
Source stepping failed

Pseudo Transient failed in finding the operating point at 5 탎.
Early termination of direct N-R iteration.
Direct Newton iteration failed to find .op point.  (Use ".option noopiter" to skip.)
Starting Gmin stepping
Gmin = 10
Gmin = 1.07374
Gmin = 0.115292
Gmin = 0.0123794
Gmin = 0.00132923
vernier = 0.5
vernier = 0.25
vernier = 0.125
vernier = 0.0625
vernier = 0.03125
Gmin = 0.000544452
vernier = 0.015625
vernier = 0.0078125
vernier = 0.00390625
vernier = 0.00195312
vernier = 0.000976562
vernier = 0.000488281
Gmin = 0
Gmin stepping failed

Starting source stepping with srcstepmethod=0
Source Step = 3.0303%
Source Step = 33.3333%
Source Step = 63.6364%
Source Step = 84.0909%
Source Step = 89.4413%
vernier = 0.00390625
Starting source stepping with srcstepmethod=1
Source Step = 3.0303%
vernier = 0.25
Source Step = 7.57576%
Source Step = 15.1515%
Source Step = 22.7273%
Source Step = 30.303%
Source Step = 37.8788%
vernier = 0.375
Source Step = 48.8636%
Source Step = 60.2273%
Source Step = 71.5909%
Source Step = 76.8466%
Source Step = 77.1618%
Source Step = 77.2061%
Source Step = 77.2505%
Source stepping failed

Pseudo Transient failed in finding the operating point at 5 탎.
Early termination of direct N-R iteration.
Direct Newton iteration failed to find .op point.  (Use ".option noopiter" to skip.)
Starting Gmin stepping
Gmin = 10
Gmin = 1.07374
Gmin = 0.115292
Gmin = 0.0123794
Gmin = 0.00132923
vernier = 0.5
vernier = 0.25
vernier = 0.125
vernier = 0.0625
vernier = 0.03125
Gmin = 0.000544452
vernier = 0.015625
vernier = 0.0078125
vernier = 0.00390625
vernier = 0.00195312
vernier = 0.000976562
vernier = 0.000488281
Gmin = 0
Gmin stepping failed

Starting source stepping with srcstepmethod=0
Source Step = 3.0303%
Source Step = 33.3333%
Source Step = 63.6364%
Source Step = 84.0909%
Source Step = 89.4413%
vernier = 0.00390625
Starting source stepping with srcstepmethod=1
Source Step = 3.0303%
vernier = 0.25
Source Step = 7.57576%
Source Step = 15.1515%
Source Step = 22.7273%
Source Step = 30.303%
Source Step = 37.8788%
vernier = 0.375
Source Step = 41.9034%
Source Step = 42.6136%
Source Step = 43.3239%
Source Step = 44.0341%
Source Step = 44.5135%
Source Step = 44.5534%
Source stepping failed

Pseudo Transient failed in finding the operating point at 5 탎.
Direct Newton iteration failed to find .op point.  (Use ".option noopiter" to skip.)
Starting Gmin stepping
Gmin = 10
Gmin = 1.07374
Gmin = 0.115292
Gmin = 0.0123794
Gmin = 0.00132923
vernier = 0.5
vernier = 0.25
vernier = 0.125
vernier = 0.0625
vernier = 0.03125
Gmin = 0.000544452
vernier = 0.015625
vernier = 0.0078125
vernier = 0.00390625
vernier = 0.00195312
vernier = 0.000976562
vernier = 0.000488281
Gmin = 0
Gmin stepping failed

Starting source stepping with srcstepmethod=0
Source Step = 3.0303%
Source Step = 33.3333%
Source Step = 63.6364%
Source Step = 88.6364%
vernier = 0.0625
Source Step = 87.8995%
Starting source stepping with srcstepmethod=1
Source Step = 3.0303%
vernier = 0.25
Source Step = 7.57576%
Source Step = 15.1515%
Source Step = 22.7273%
Source Step = 30.303%
Source Step = 37.8788%
vernier = 0.375
Source Step = 48.8636%
Source Step = 52.4148%
Source Step = 53.125%
Source Step = 53.8352%
Source Step = 54.5455%
Source Step = 55.2557%
vernier = 0.0351562
Source Step = 56.0014%
Source Step = 56.8004%
Source Step = 56.9003%
Source stepping failed

Pseudo Transient failed in finding the operating point at 5 탎.
Early termination of direct N-R iteration.
Direct Newton iteration failed to find .op point.  (Use ".option noopiter" to skip.)
Starting Gmin stepping
Gmin = 10
Gmin = 1.07374
Gmin = 0.115292
Gmin = 0.0123794
Gmin = 0.00132923
vernier = 0.5
vernier = 0.25
vernier = 0.125
vernier = 0.0625
vernier = 0.03125
Gmin = 0.000544452
vernier = 0.015625
vernier = 0.0078125
vernier = 0.00390625
vernier = 0.00195312
vernier = 0.000976562
vernier = 0.000488281
Gmin = 0
Gmin stepping failed

Starting source stepping with srcstepmethod=0
Source Step = 3.0303%
Source Step = 33.3333%
Source Step = 63.6364%
Source Step = 88.6364%
vernier = 0.0625
Source Step = 87.8995%
Starting source stepping with srcstepmethod=1
Source Step = 3.0303%
vernier = 0.25
Source Step = 7.57576%
Source Step = 15.1515%
Source Step = 22.7273%
Source Step = 30.303%
Source Step = 37.8788%
vernier = 0.375
Source Step = 48.8636%
Source Step = 60.2273%
Source Step = 71.5909%
Source Step = 82.9545%
Source Step = 94.3182%
vernier = 0.5625
Source Step = 99.0067%
Source Step = 99.0732%
Source Step = 99.1398%
Source Step = 99.2064%
Source Step = 99.273%
Source Step = 99.3396%
Source Step = 99.4062%
Source stepping failed

Pseudo Transient failed in finding the operating point at 5 탎.
Early termination of direct N-R iteration.
Direct Newton iteration failed to find .op point.  (Use ".option noopiter" to skip.)
Starting Gmin stepping
Gmin = 10
Gmin = 1.07374
Gmin = 0.115292
Gmin = 0.0123794
Gmin = 0.00132923
vernier = 0.5
vernier = 0.25
vernier = 0.125
vernier = 0.0625
vernier = 0.03125
Gmin = 0.000544452
vernier = 0.015625
vernier = 0.0078125
vernier = 0.00390625
vernier = 0.00195312
vernier = 0.000976562
vernier = 0.000488281
Gmin = 0
Gmin stepping failed

Starting source stepping with srcstepmethod=0
Source Step = 3.0303%
Source Step = 33.3333%
Source Step = 63.6364%
Source Step = 81.8182%
Source Step = 89.3939%
Source Step = 89.4117%
Starting source stepping with srcstepmethod=1
Source Step = 3.0303%
vernier = 0.25
Source Step = 7.57576%
Source Step = 15.1515%
Source Step = 22.7273%
Source Step = 30.303%
Source Step = 37.8788%
vernier = 0.375
Source Step = 48.8636%
Source Step = 51.4205%
Source Step = 54.2614%
Source Step = 57.1023%
Source Step = 57.9545%
Source Step = 58.6648%
Source Step = 59.375%
Source Step = 60.0852%
Source Step = 60.5114%
Source Step = 60.6889%
Source Step = 60.8088%
Source Step = 60.8532%
Source Step = 60.8975%
Source stepping failed

Pseudo Transient failed in finding the operating point at 5 탎.
Early termination of direct N-R iteration.
Direct Newton iteration failed to find .op point.  (Use ".option noopiter" to skip.)
Starting Gmin stepping
Gmin = 10
Gmin = 1.07374
Gmin = 0.115292
Gmin = 0.0123794
Gmin = 0.00132923
vernier = 0.5
vernier = 0.25
vernier = 0.125
vernier = 0.0625
vernier = 0.03125
Gmin = 0.000544452
vernier = 0.015625
vernier = 0.0078125
vernier = 0.00390625
vernier = 0.00195312
vernier = 0.000976562
vernier = 0.000488281
Gmin = 0
Gmin stepping failed

Starting source stepping with srcstepmethod=0
Source Step = 3.0303%
Source Step = 33.3333%
Source Step = 63.6364%
Source Step = 81.8182%
Source Step = 89.3939%
Source Step = 89.4117%
Starting source stepping with srcstepmethod=1
Source Step = 3.0303%
vernier = 0.25
Source Step = 7.57576%
Source Step = 15.1515%
Source Step = 22.7273%
Source Step = 30.303%
Source Step = 37.8788%
vernier = 0.375
Source Step = 48.8636%
Source Step = 60.2273%
Source Step = 71.5909%
Source Step = 75.8523%
Source Step = 77.983%
Source Step = 78.3558%
vernier = 0.00146484
Source stepping failed

Pseudo Transient failed in finding the operating point at 5 탎.
Early termination of direct N-R iteration.
Direct Newton iteration failed to find .op point.  (Use ".option noopiter" to skip.)
Starting Gmin stepping
Gmin = 10
Gmin = 1.07374
Gmin = 0.115292
Gmin = 0.0123794
Gmin = 0.00132923
vernier = 0.5
vernier = 0.25
vernier = 0.125
vernier = 0.0625
vernier = 0.03125
Gmin = 0.000544452
vernier = 0.015625
vernier = 0.0078125
vernier = 0.00390625
vernier = 0.00195312
vernier = 0.000976562
vernier = 0.000488281
Gmin = 0
Gmin stepping failed

Starting source stepping with srcstepmethod=0
Source Step = 3.0303%
Source Step = 33.3333%
Source Step = 63.6364%
Source Step = 88.6364%
vernier = 0.0625
Source Step = 87.8995%
Starting source stepping with srcstepmethod=1
Source Step = 3.0303%
vernier = 0.25
Source Step = 7.57576%
Source Step = 15.1515%
Source Step = 22.7273%
Source Step = 30.303%
Source Step = 37.8788%
vernier = 0.375
Source Step = 43.4659%
Source Step = 44.5312%
Source Step = 45.2415%
Source Step = 45.9517%
Source Step = 46.6619%
Source Step = 46.8217%
Source Step = 46.9993%
vernier = 0.00146484
Source stepping failed

Pseudo Transient failed in finding the operating point at 5 탎.
Direct Newton iteration failed to find .op point.  (Use ".option noopiter" to skip.)
Starting Gmin stepping
Gmin = 10
Gmin = 1.07374
Gmin = 0.115292
Gmin = 0.0123794
Gmin = 0.00132923
vernier = 0.5
vernier = 0.25
vernier = 0.125
vernier = 0.0625
vernier = 0.03125
Gmin = 0.000544452
vernier = 0.015625
vernier = 0.0078125
vernier = 0.00390625
vernier = 0.00195312
vernier = 0.000976562
vernier = 0.000488281
Gmin = 0
Gmin stepping failed

Starting source stepping with srcstepmethod=0
Source Step = 3.0303%
Source Step = 33.3333%
Source Step = 63.6364%
Source Step = 79.5455%
Source Step = 87.1212%
Source Step = 89.4028%
Starting source stepping with srcstepmethod=1
Source Step = 3.0303%
vernier = 0.25
Source Step = 7.57576%
Source Step = 15.1515%
Source Step = 22.7273%
Source Step = 30.303%
Source Step = 37.8788%
vernier = 0.375
Source Step = 48.8636%
Source Step = 57.3864%
vernier = 0.0234375
Source Step = 57.8125%
Source Step = 58.1321%
Source Step = 58.1854%
Source stepping failed

Pseudo Transient failed in finding the operating point at 5 탎.
Early termination of direct N-R iteration.
Direct Newton iteration failed to find .op point.  (Use ".option noopiter" to skip.)
Starting Gmin stepping
Gmin = 10
Gmin = 1.07374
Gmin = 0.115292
Gmin = 0.0123794
Gmin = 0.00132923
vernier = 0.5
vernier = 0.25
vernier = 0.125
vernier = 0.0625
vernier = 0.03125
Gmin = 0.000544452
vernier = 0.015625
vernier = 0.0078125
vernier = 0.00390625
vernier = 0.00195312
vernier = 0.000976562
vernier = 0.000488281
Gmin = 0
Gmin stepping failed

Starting source stepping with srcstepmethod=0
Source Step = 3.0303%
Source Step = 33.3333%
Source Step = 63.6364%
Source Step = 88.6364%
vernier = 0.0625
Source Step = 87.8995%
Starting source stepping with srcstepmethod=1
Source Step = 3.0303%
vernier = 0.25
Source Step = 7.57576%
Source Step = 15.1515%
Source Step = 22.7273%
Source Step = 30.303%
Source Step = 37.8788%
vernier = 0.375
Source Step = 48.8636%
Source Step = 60.2273%
Source Step = 71.5909%
Source Step = 82.9545%
vernier = 0.09375
Source Step = 83.7358%
Source Step = 83.8379%
Source Step = 83.8823%
Source stepping failed

Pseudo Transient failed in finding the operating point at 5 탎.
Direct Newton iteration failed to find .op point.  (Use ".option noopiter" to skip.)
Starting Gmin stepping
Gmin = 10
Gmin = 1.07374
Gmin = 0.115292
Gmin = 0.0123794
Gmin = 0.00132923
vernier = 0.5
vernier = 0.25
vernier = 0.125
vernier = 0.0625
vernier = 0.03125
Gmin = 0.000544452
vernier = 0.015625
vernier = 0.0078125
vernier = 0.00390625
vernier = 0.00195312
vernier = 0.000976562
vernier = 0.000488281
Gmin = 0
Gmin stepping failed

Starting source stepping with srcstepmethod=0
Source Step = 3.0303%
Source Step = 33.3333%
Source Step = 63.6364%
Source Step = 75%
Source Step = 82.5758%
Source Step = 90.1515%
vernier = 0.0625
Source Step = 89.4147%
Starting source stepping with srcstepmethod=1
Source Step = 3.0303%
vernier = 0.25
Source Step = 7.57576%
Source Step = 15.1515%
Source Step = 22.7273%
Source Step = 30.303%
Source Step = 37.8788%
vernier = 0.375
Source Step = 42.6136%
Source Step = 45.4545%
Source Step = 48.2955%
Source Step = 51.1364%
Source Step = 53.9773%
Source Step = 55.1314%
Source Step = 55.1713%
Source Step = 55.2157%
Source Step = 55.2601%
Source Step = 55.3045%
Source Step = 55.3489%
vernier = 0.00219727
Source Step = 55.411%
Source stepping failed

Pseudo Transient failed in finding the operating point at 5 탎.
Early termination of direct N-R iteration.
Direct Newton iteration failed to find .op point.  (Use ".option noopiter" to skip.)
Starting Gmin stepping
Gmin = 10
Gmin = 1.07374
Gmin = 0.115292
Gmin = 0.0123794
Gmin = 0.00132923
vernier = 0.5
vernier = 0.25
vernier = 0.125
vernier = 0.0625
vernier = 0.03125
Gmin = 0.000544452
vernier = 0.015625
vernier = 0.0078125
vernier = 0.00390625
vernier = 0.00195312
vernier = 0.000976562
vernier = 0.000488281
Gmin = 0
Gmin stepping failed

Starting source stepping with srcstepmethod=0
Source Step = 3.0303%
Source Step = 33.3333%
Source Step = 63.6364%
Source Step = 88.6364%
vernier = 0.0625
Source Step = 87.8995%
Starting source stepping with srcstepmethod=1
Source Step = 3.0303%
vernier = 0.25
Source Step = 7.57576%
Source Step = 15.1515%
Source Step = 22.7273%
Source Step = 30.303%
Source Step = 37.8788%
vernier = 0.375
Source Step = 48.8636%
Source Step = 51.4205%
Source Step = 53.5511%
Source Step = 53.924%
Source Step = 54.1016%
Source Step = 54.2791%
Source Step = 54.4567%
Source Step = 54.6342%
vernier = 0.00878906
Source Step = 54.8473%
Source Step = 55.1136%
Source Step = 55.38%
Source Step = 55.6463%
Source Step = 55.9126%
vernier = 0.0131836
Source Step = 56.2189%
Source Step = 56.5485%
Source stepping failed

Pseudo Transient failed in finding the operating point at 5 탎.
Early termination of direct N-R iteration.
Direct Newton iteration failed to find .op point.  (Use ".option noopiter" to skip.)
Starting Gmin stepping
Gmin = 10
Gmin = 1.07374
Gmin = 0.115292
Gmin = 0.0123794
Gmin = 0.00132923
vernier = 0.5
vernier = 0.25
vernier = 0.125
vernier = 0.0625
Gmin = 0.000604946
vernier = 0.03125
vernier = 0.015625
vernier = 0.0078125
vernier = 0.00390625
vernier = 0.00195312
vernier = 0.000976562
vernier = 0.000488281
Gmin = 0
Gmin stepping failed

Starting source stepping with srcstepmethod=0
Source Step = 3.0303%
Source Step = 25.7576%
Source Step = 33.3333%
Source Step = 40.9091%
Source Step = 48.4848%
Source Step = 56.0606%
vernier = 0.375
Source Step = 64.0152%
Source Step = 75.3788%
Source Step = 86.7424%
Source Step = 90.1515%
vernier = 0.0234375
Source Step = 89.9029%
Starting source stepping with srcstepmethod=1
Source Step = 3.0303%
vernier = 0.25
Source Step = 7.57576%
Source Step = 15.1515%
Source Step = 22.7273%
Source Step = 30.303%
Source Step = 37.8788%
vernier = 0.375
Source Step = 48.8636%
Source Step = 60.2273%
Source Step = 71.5909%
Source Step = 82.9545%
Source Step = 94.3182%
vernier = 0.5625
Source Step = 99.0067%
Source Step = 99.0732%
Source Step = 99.1398%
Source Step = 99.2064%
Source Step = 99.273%
Source Step = 99.3396%
Source Step = 99.4062%
Source stepping failed

Pseudo Transient failed in finding the operating point at 5 탎.
Early termination of direct N-R iteration.
Direct Newton iteration failed to find .op point.  (Use ".option noopiter" to skip.)
Starting Gmin stepping
Gmin = 10
Gmin = 1.07374
Gmin = 0.115292
Gmin = 0.0123794
Gmin = 0.00132923
vernier = 0.5
vernier = 0.25
vernier = 0.125
Gmin = 0.000640532
vernier = 0.0625
vernier = 0.03125
vernier = 0.015625
vernier = 0.0078125
Gmin = 0.000620974
vernier = 0.0104167
Gmin = 0.000607001
vernier = 0.0138889
vernier = 0.0185185
Gmin = 0.000584803
vernier = 0.0246913
vernier = 0.0329218
Gmin = 0.000551311
vernier = 0.0438957
Gmin = 0.000501069
vernier = 0.0585276
vernier = 0.0780367
Gmin = 0.00042868
vernier = 0.0390184
vernier = 0.0195092
Gmin = 0.000410371
vernier = 0.0260122
vernier = 0.034683
Gmin = 0.000381319
vernier = 0.046244
vernier = 0.0616586
Gmin = 0.000339274
vernier = 0.0822114
Gmin = 0.000282464
vernier = 0.109615
vernier = 0.146154
Gmin = 0.000208054
vernier = 0.194871
vernier = 0.0974357
Gmin = 0.000149025
vernier = 0.0487178
vernier = 0.0243589
vernier = 0.0121795
vernier = 0.00608973
Gmin = 0.000147673
vernier = 0.00304487
vernier = 0.00152243
vernier = 0.000761216
Gmin = 0.000147561
vernier = 0.00101495
vernier = 0.00135327
Gmin = 0.000147159
vernier = 0.00180436
vernier = 0.00240582
Gmin = 0.000146524
vernier = 0.00320776
Gmin = 0.0001455
vernier = 0.00427701
vernier = 0.00570267
Gmin = 0.000143838
vernier = 0.00760356
vernier = 0.0101381
Gmin = 0.000141244
vernier = 0.0135174
Gmin = 0.000137135
vernier = 0.0180232
vernier = 0.024031
Gmin = 0.000130666
vernier = 0.0320413
vernier = 0.0427217
Gmin = 0.000121048
vernier = 0.0569623
Gmin = 0.00010695
vernier = 0.0759497
vernier = 0.101266
Gmin = 8.73885e-05
vernier = 0.135022
vernier = 0.180029
Gmin = 6.35703e-05
vernier = 0.240038
Gmin = 3.81161e-05
vernier = 0.320051
vernier = 0.426735
Gmin = 1.67169e-05
vernier = 0.568979
vernier = 0.758639
Gmin = 4.66774e-06
vernier = 1
Gmin = 6.41863e-07
Gmin = 6.89196e-08
Gmin = 7.40018e-09
Gmin = 7.94588e-10
vernier = 0.5
Gmin = 1.48122e-10
vernier = 0.25
vernier = 0.125
vernier = 0.0625
vernier = 0.03125
vernier = 0.015625
vernier = 0.0078125
vernier = 0.00390625
vernier = 0.00195312
vernier = 0.000976562
vernier = 0.000488281
Gmin = 1.66637e-10
Gmin = 0
Gmin stepping succeeded in finding the operating point.

Direct Newton iteration failed to find .op point.  (Use ".option noopiter" to skip.)
Starting Gmin stepping
Gmin = 10
Gmin = 1.07374
Gmin = 0.115292
Gmin = 0.0123794
Gmin = 0.00132923
vernier = 0.5
vernier = 0.25
vernier = 0.125
Gmin = 0.000659942
vernier = 0.0625
vernier = 0.0833333
Gmin = 0.00057994
vernier = 0.111111
vernier = 0.148148
Gmin = 0.000439025
vernier = 0.197531
vernier = 0.0987653
Gmin = 0.000320566
vernier = 0.0493827
vernier = 0.0246913
vernier = 0.0123457
vernier = 0.00617283
Gmin = 0.000325461
vernier = 0.00823044
vernier = 0.0109739
Gmin = 0.000319113
vernier = 0.0146319
Gmin = 0.000309077
vernier = 0.0195092
vernier = 0.0260122
Gmin = 0.00029333
vernier = 0.034683
vernier = 0.046244
Gmin = 0.000270037
vernier = 0.0616586
Gmin = 0.000236181
vernier = 0.0822114
vernier = 0.109615
Gmin = 0.00018983
vernier = 0.146154
vernier = 0.0730768
Gmin = 0.000148915
vernier = 0.0365384
vernier = 0.0182692
vernier = 0.0091346
vernier = 0.0045673
Gmin = 0.000147564
vernier = 0.00228365
vernier = 0.00114182
vernier = 0.00152243
Gmin = 0.000147297
vernier = 0.00202991
Gmin = 0.000146645
vernier = 0.00270655
vernier = 0.00360873
Gmin = 0.000145582
vernier = 0.00481163
vernier = 0.00641551
Gmin = 0.000143915
vernier = 0.00855401
Gmin = 0.000141249
vernier = 0.0114053
vernier = 0.0152071
Gmin = 0.000136992
vernier = 0.0202762
vernier = 0.0270349
Gmin = 0.000130512
vernier = 0.0360465
Gmin = 0.000120654
vernier = 0.048062
vernier = 0.0640826
Gmin = 0.000106125
vernier = 0.0854435
vernier = 0.113925
Gmin = 8.66637e-05
vernier = 0.151899
Gmin = 6.25059e-05
vernier = 0.202533
vernier = 0.270043
Gmin = 3.68054e-05
vernier = 0.360058
vernier = 0.480077
Gmin = 1.61055e-05
vernier = 0.640102
Gmin = 4.35021e-06
vernier = 0.853469
vernier = 1
Gmin = 6.01671e-07
Gmin = 6.46039e-08
Gmin = 6.93679e-09
Gmin = 7.44832e-10
vernier = 0.5
vernier = 0.25
vernier = 0.125
vernier = 0.0625
vernier = 0.03125
vernier = 0.015625
Gmin = 3.81354e-10
vernier = 0.0078125
vernier = 0.00390625
vernier = 0.00195312
vernier = 0.000976562
vernier = 0.000488281
Gmin = 0
Gmin stepping succeeded in finding the operating point.

Direct Newton iteration failed to find .op point.  (Use ".option noopiter" to skip.)
Starting Gmin stepping
Gmin = 10
Gmin = 1.07374
Gmin = 0.115292
Gmin = 0.0123794
Gmin = 0.00132923
vernier = 0.5
vernier = 0.25
vernier = 0.125
Gmin = 0.000733268
vernier = 0.0625
vernier = 0.0833333
Gmin = 0.000637869
vernier = 0.111111
vernier = 0.148148
Gmin = 0.000490543
vernier = 0.197531
Gmin = 0.000321393
vernier = 0.0987653
vernier = 0.0493827
vernier = 0.0246913
vernier = 0.0123457
Gmin = 0.000326112
vernier = 0.00617283
vernier = 0.00308642
vernier = 0.00154321
vernier = 0.000771604
vernier = 0.000578703
vernier = 0.000434027
Gmin = 0
Gmin stepping failed

Starting source stepping with srcstepmethod=0
Source Step = 3.0303%
Source Step = 23.4848%
Source Step = 31.0606%
Source Step = 38.6364%
Source Step = 46.2121%
Source Step = 53.7879%
vernier = 0.375
Source Step = 62.1212%
Source Step = 73.4848%
Source Step = 84.8485%
Source Step = 89.4028%
Starting source stepping with srcstepmethod=1
Source Step = 3.0303%
vernier = 0.25
Source Step = 7.57576%
Source Step = 15.1515%
Source Step = 22.7273%
Source Step = 30.303%
Source Step = 37.8788%
vernier = 0.375
Source Step = 46.875%
Source Step = 49.7159%
vernier = 0.0234375
Source Step = 50.142%
Source Step = 50.8523%
Source Step = 51.5625%
Source Step = 52.2727%
Source Step = 52.983%
vernier = 0.0351562
Source Step = 54.0128%
Source Step = 55.0781%
Source Step = 55.3178%
Source Step = 55.5842%
Source Step = 55.8505%
Source Step = 55.9104%
Source Step = 55.977%
Source Step = 56.0436%
Source stepping failed

Pseudo Transient failed in finding the operating point at 5 탎.
Early termination of direct N-R iteration.
Direct Newton iteration failed to find .op point.  (Use ".option noopiter" to skip.)
Starting Gmin stepping
Gmin = 10
Gmin = 1.07374
Gmin = 0.115292
Gmin = 0.0123794
Gmin = 0.00132923
vernier = 0.5
vernier = 0.25
vernier = 0.125
Gmin = 0.000776402
vernier = 0.0625
vernier = 0.03125
vernier = 0.0416667
Gmin = 0.000739073
vernier = 0.0555555
Gmin = 0.000654988
vernier = 0.074074
vernier = 0.0987653
Gmin = 0.000537836
vernier = 0.131687
vernier = 0.175583
Gmin = 0.000394284
vernier = 0.0877914
vernier = 0.0438957
Gmin = 0.000324863
vernier = 0.0219478
vernier = 0.0109739
vernier = 0.00548696
vernier = 0.00274348
Gmin = 0.00032641
vernier = 0.00137174
vernier = 0.00182899
Gmin = 0.000325479
vernier = 0.00243865
vernier = 0.00325153
Gmin = 0.000323468
vernier = 0.00433537
Gmin = 0.00032033
vernier = 0.00578049
vernier = 0.00770732
Gmin = 0.00031513
vernier = 0.0102764
vernier = 0.0137019
Gmin = 0.000307017
vernier = 0.0182692
Gmin = 0.000294678
vernier = 0.0243589
vernier = 0.0324786
Gmin = 0.000275092
vernier = 0.0433047
vernier = 0.0577396
Gmin = 0.000246574
vernier = 0.0769862
Gmin = 0.000207671
vernier = 0.102648
vernier = 0.136864
Gmin = 0.000155921
vernier = 0.0684321
vernier = 0.0342161
vernier = 0.017108
Gmin = 0.000146967
vernier = 0.00855401
vernier = 0.00427701
vernier = 0.0021385
Gmin = 0.000146966
vernier = 0.00285134
vernier = 0.00380178
Gmin = 0.000145844
vernier = 0.00506904
vernier = 0.00675872
Gmin = 0.000144085
vernier = 0.00901162
Gmin = 0.000141275
vernier = 0.0120155
vernier = 0.0160207
Gmin = 0.000136793
vernier = 0.0213609
vernier = 0.0284812
Gmin = 0.000129986
vernier = 0.0379749
Gmin = 0.000119667
vernier = 0.0506331
vernier = 0.0675108
Gmin = 0.000104541
vernier = 0.0900144
vernier = 0.120019
Gmin = 8.44599e-05
vernier = 0.160026
Gmin = 5.9879e-05
vernier = 0.213367
vernier = 0.28449
Gmin = 3.43009e-05
vernier = 0.37932
vernier = 0.505759
Gmin = 1.4388e-05
vernier = 0.674345
Gmin = 3.64046e-06
vernier = 0.899127
vernier = 1
Gmin = 4.72512e-07
Gmin = 5.07356e-08
Gmin = 5.44769e-09
Gmin = 5.84941e-10
vernier = 0.5
vernier = 0.25
Gmin = 3.42506e-10
vernier = 0.333333
vernier = 0.166667
vernier = 0.0833333
Gmin = 2.57994e-10
vernier = 0.111111
vernier = 0.0555555
vernier = 0.0277778
vernier = 0.0138889
vernier = 0.00694444
vernier = 0.00347222
vernier = 0.00173611
Gmin = 2.42519e-10
vernier = 0.000868055
vernier = 0.000434028
Gmin = 0
Gmin stepping succeeded in finding the operating point.

Direct Newton iteration failed to find .op point.  (Use ".option noopiter" to skip.)
Starting Gmin stepping
Gmin = 10
Gmin = 1.07374
Gmin = 0.115292
Gmin = 0.0123794
Gmin = 0.00132923
vernier = 0.5
vernier = 0.25
vernier = 0.125
vernier = 0.0625
Gmin = 0.000850706
vernier = 0.03125
vernier = 0.0416667
Gmin = 0.000789126
vernier = 0.0555555
Gmin = 0.000696951
vernier = 0.074074
vernier = 0.0987653
Gmin = 0.000566261
vernier = 0.131687
vernier = 0.175583
Gmin = 0.000407485
vernier = 0.23411
vernier = 0.117055
vernier = 0.0585276
Gmin = 0.000328585
vernier = 0.0292638
vernier = 0.0390184
Gmin = 0.000307731
vernier = 0.0520245
vernier = 0.0693659
Gmin = 0.000271885
vernier = 0.0924879
Gmin = 0.000222543
vernier = 0.123317
vernier = 0.164423
Gmin = 0.00016065
vernier = 0.0822114
vernier = 0.0411057
vernier = 0.0205529
Gmin = 0.000146704
vernier = 0.0102764
vernier = 0.00513821
vernier = 0.00685095
Gmin = 0.000145889
vernier = 0.0091346
Gmin = 0.000143005
vernier = 0.0121795
vernier = 0.0162393
Gmin = 0.000138408
vernier = 0.0216524
vernier = 0.0288698
Gmin = 0.000131429
vernier = 0.0384931
Gmin = 0.000120859
vernier = 0.0513241
vernier = 0.0684321
Gmin = 0.000105389
vernier = 0.0912428
vernier = 0.121657
Gmin = 8.49007e-05
vernier = 0.162209
Gmin = 5.99145e-05
vernier = 0.216279
vernier = 0.288372
Gmin = 3.40686e-05
vernier = 0.384496
vernier = 0.512661
Gmin = 1.41295e-05
vernier = 0.683548
Gmin = 3.51308e-06
vernier = 0.911397
vernier = 1
Gmin = 4.48305e-07
Gmin = 4.81363e-08
Gmin = 5.1686e-09
Gmin = 5.54974e-10
vernier = 0.5
vernier = 0.25
vernier = 0.125
vernier = 0.0625
Gmin = 2.80639e-10
vernier = 0.03125
vernier = 0.015625
vernier = 0.0078125
vernier = 0.00390625
vernier = 0.00195312
vernier = 0.000976562
vernier = 0.000488281
Gmin = 0
Gmin stepping succeeded in finding the operating point.

Direct Newton iteration failed to find .op point.  (Use ".option noopiter" to skip.)
Starting Gmin stepping
Gmin = 10
Gmin = 1.07374
Gmin = 0.115292
Gmin = 0.0123794
Gmin = 0.00132923
vernier = 0.5
vernier = 0.25
vernier = 0.125
Gmin = 0.00088881
vernier = 0.0625
vernier = 0.0833333
Gmin = 0.000781064
vernier = 0.111111
vernier = 0.148148
Gmin = 0.00059128
vernier = 0.197531
Gmin = 0.000382836
vernier = 0.263374
vernier = 0.131687
vernier = 0.0658435
vernier = 0.0329218
Gmin = 0.000328833
vernier = 0.0164609
vernier = 0.0219478
Gmin = 0.000316904
vernier = 0.0292638
vernier = 0.0390184
Gmin = 0.000295521
vernier = 0.0520245
Gmin = 0.000263906
vernier = 0.0693659
vernier = 0.0924879
Gmin = 0.000219409
vernier = 0.123317
vernier = 0.164423
Gmin = 0.000164005
vernier = 0.0822114
vernier = 0.0411057
vernier = 0.0205529
Gmin = 0.000146755
vernier = 0.0102764
vernier = 0.0137019
Gmin = 0.000143405
vernier = 0.0182692
vernier = 0.0243589
Gmin = 0.000137277
vernier = 0.0324786
Gmin = 0.000127895
vernier = 0.0433047
vernier = 0.0577396
Gmin = 0.000113923
vernier = 0.0769862
vernier = 0.102648
Gmin = 9.48983e-05
vernier = 0.136864
Gmin = 7.06612e-05
vernier = 0.182486
vernier = 0.243314
Gmin = 4.37912e-05
vernier = 0.324419
vernier = 0.432558
Gmin = 2.07325e-05
vernier = 0.576744
Gmin = 6.32697e-06
vernier = 0.768992
vernier = 1
Gmin = 9.85756e-07
Gmin = 1.05845e-07
Gmin = 1.1365e-08
Gmin = 1.22031e-09
vernier = 0.5
Gmin = 2.27482e-10
vernier = 0.25
vernier = 0.125
vernier = 0.0625
vernier = 0.03125
vernier = 0.015625
vernier = 0.0078125
vernier = 0.00390625
vernier = 0.00195312
Gmin = 2.40863e-10
vernier = 0.000976562
vernier = 0.000488281
Gmin = 0
Gmin stepping succeeded in finding the operating point.

Direct Newton iteration failed to find .op point.  (Use ".option noopiter" to skip.)
Starting Gmin stepping
Gmin = 10
Gmin = 1.07374
Gmin = 0.115292
Gmin = 0.0123794
Gmin = 0.00132923
vernier = 0.5
vernier = 0.25
vernier = 0.125
Gmin = 0.000941093
vernier = 0.0625
vernier = 0.0833333
Gmin = 0.000827009
vernier = 0.111111
vernier = 0.148148
Gmin = 0.000626061
vernier = 0.197531
Gmin = 0.000405356
vernier = 0.263374
vernier = 0.131687
vernier = 0.0658435
vernier = 0.0329218
Gmin = 0.000329356
vernier = 0.0164609
vernier = 0.0219478
Gmin = 0.000317408
vernier = 0.0292638
vernier = 0.0390184
Gmin = 0.000295991
vernier = 0.0520245
Gmin = 0.000264326
vernier = 0.0693659
vernier = 0.0924879
Gmin = 0.000219758
vernier = 0.123317
vernier = 0.164423
Gmin = 0.000164266
vernier = 0.0822114
vernier = 0.0411057
vernier = 0.0205529
Gmin = 0.000146988
vernier = 0.0102764
vernier = 0.00513821
vernier = 0.00256911
Gmin = 0.000146235
vernier = 0.00342548
vernier = 0.0045673
Gmin = 0.000145041
vernier = 0.00608973
Gmin = 0.000143123
vernier = 0.00811964
vernier = 0.0108262
Gmin = 0.000140037
vernier = 0.0144349
vernier = 0.0192465
Gmin = 0.000135285
vernier = 0.025662
Gmin = 0.00012792
vernier = 0.0342161
vernier = 0.0456214
Gmin = 0.000116732
vernier = 0.0608285
vernier = 0.0811047
Gmin = 0.000101011
vernier = 0.10814
Gmin = 7.99567e-05
vernier = 0.144186
vernier = 0.192248
Gmin = 5.46806e-05
vernier = 0.25633
vernier = 0.341774
Gmin = 3.01448e-05
vernier = 0.455698
Gmin = 1.16654e-05
vernier = 0.607598
vernier = 0.81013
Gmin = 2.57789e-06
vernier = 1
Gmin = 3.10888e-07
Gmin = 3.33813e-08
Gmin = 3.58429e-09
Gmin = 3.8486e-10
vernier = 0.5
vernier = 0.25
vernier = 0.125
Gmin = 1.40123e-10
vernier = 0.0625
vernier = 0.03125
vernier = 0.015625
vernier = 0.0078125
vernier = 0.00390625
vernier = 0.00195312
vernier = 0.000976562
vernier = 0.000488281
Gmin = 0
Gmin stepping succeeded in finding the operating point.

Direct Newton iteration failed to find .op point.  (Use ".option noopiter" to skip.)
Starting Gmin stepping
Gmin = 10
Gmin = 1.07374
Gmin = 0.115292
Gmin = 0.0123794
Gmin = 0.00132923
vernier = 0.5
vernier = 0.25
vernier = 0.125
vernier = 0.0625
Gmin = 0.00126912
vernier = 0.03125
vernier = 0.015625
vernier = 0.0078125
Gmin = 0.00126901
vernier = 0.0104167
vernier = 0.0138889
Gmin = 0.00123403
vernier = 0.0185185
vernier = 0.0246913
Gmin = 0.0011806
vernier = 0.0329218
Gmin = 0.00109885
vernier = 0.0438957
vernier = 0.0585276
Gmin = 0.000977269
vernier = 0.0780367
vernier = 0.104049
Gmin = 0.000812062
vernier = 0.138732
Gmin = 0.000602268
vernier = 0.184976
vernier = 0.246634
Gmin = 0.000370877
vernier = 0.123317
vernier = 0.0616586
Gmin = 0.000318776
vernier = 0.0822114
vernier = 0.109615
Gmin = 0.000256215
vernier = 0.146154
vernier = 0.194871
Gmin = 0.00018164
vernier = 0.0974357
vernier = 0.0487178
Gmin = 0.000144833
vernier = 0.0243589
vernier = 0.0121795
vernier = 0.00608973
vernier = 0.00304487
Gmin = 0.000143737
vernier = 0.00152243
vernier = 0.00202991
Gmin = 0.000143209
vernier = 0.00270655
Gmin = 0.00014234
vernier = 0.00360873
vernier = 0.00481163
Gmin = 0.000140893
vernier = 0.00641551
vernier = 0.00855401
Gmin = 0.000138616
vernier = 0.0114053
Gmin = 0.000135109
vernier = 0.0152071
vernier = 0.0202762
Gmin = 0.000129423
vernier = 0.0270349
vernier = 0.0360465
Gmin = 0.000120858
vernier = 0.048062
Gmin = 0.000108534
vernier = 0.0640826
vernier = 0.0854435
Gmin = 9.06641e-05
vernier = 0.113925
vernier = 0.151899
Gmin = 6.81593e-05
vernier = 0.202533
Gmin = 4.36588e-05
vernier = 0.270043
vernier = 0.360058
Gmin = 2.08982e-05
vernier = 0.480077
vernier = 0.640102
Gmin = 6.6215e-06
vernier = 0.853469
Gmin = 1.14586e-06
vernier = 1
Gmin = 1.23036e-07
Gmin = 1.32109e-08
Gmin = 1.41851e-09
vernier = 0.5
Gmin = 3.26456e-10
vernier = 0.666667
vernier = 0.333333
vernier = 0.166667
vernier = 0.0833333
Gmin = 2.1658e-10
vernier = 0.0416667
vernier = 0.0208333
vernier = 0.0104167
Gmin = 2.10511e-10
vernier = 0.00520833
vernier = 0.00260417
vernier = 0.00130208
vernier = 0.000651042
vernier = 0.000488281
Gmin = 0
Gmin stepping failed

Starting source stepping with srcstepmethod=0
Source Step = 3.0303%
Source Step = 33.3333%
Source Step = 63.6364%
Source Step = 88.6364%
vernier = 0.0625
Source Step = 87.8995%
Starting source stepping with srcstepmethod=1
Source Step = 3.0303%
vernier = 0.25
Source Step = 7.57576%
Source Step = 15.1515%
Source Step = 22.7273%
Source Step = 30.303%
Source Step = 37.8788%
vernier = 0.375
Source Step = 48.8636%
Source Step = 60.2273%
Source Step = 61.4924%
Source Step = 61.5368%
Source stepping failed

Pseudo Transient failed in finding the operating point at 5 탎.
Direct Newton iteration failed to find .op point.  (Use ".option noopiter" to skip.)
Starting Gmin stepping
Gmin = 10
Gmin = 1.07374
Gmin = 0.115292
Gmin = 0.0123794
Gmin = 0.00132923
vernier = 0.5
vernier = 0.25
vernier = 0.125
vernier = 0.0625
Gmin = 0.00136866
vernier = 0.03125
vernier = 0.015625
vernier = 0.0208333
Gmin = 0.00134563
[...]
Source Step = 91.7614%
Source stepping failed

Pseudo Transient failed in finding the operating point at 5 탎.
Direct Newton iteration failed to find .op point.  (Use ".option noopiter" to skip.)
Starting Gmin stepping
Gmin = 10
Gmin = 1.07374
Gmin = 0.115292
Gmin = 0.0123794
vernier = 0.5
Gmin = 0.00230769
vernier = 0.25
vernier = 0.125
vernier = 0.0625
Gmin = 0.00207323
vernier = 0.0833333
vernier = 0.111111
Gmin = 0.00168133
vernier = 0.148148
Gmin = 0.00121141
vernier = 0.197531
vernier = 0.263374
Gmin = 0.000702933
vernier = 0.351165
vernier = 0.175583
Gmin = 0.000389172
vernier = 0.0877914
vernier = 0.0438957
vernier = 0.0219478
vernier = 0.0109739
Gmin = 0.000379772
vernier = 0.0146319
Gmin = 0.000367494
vernier = 0.0195092
vernier = 0.0260122
Gmin = 0.000347785
vernier = 0.034683
vernier = 0.046244
Gmin = 0.000318567
vernier = 0.0616586
Gmin = 0.000277569
vernier = 0.0822114
vernier = 0.109615
Gmin = 0.000220492
vernier = 0.146154
vernier = 0.194871
Gmin = 0.000153138
vernier = 0.259828
vernier = 0.129914
vernier = 0.0649571
Gmin = 0.000116982
vernier = 0.0324786
vernier = 0.0162393
vernier = 0.00811964
vernier = 0.00405982
Gmin = 0.000117209
vernier = 0.00202991
vernier = 0.00270655
Gmin = 0.000116675
vernier = 0.00360873
vernier = 0.00481163
Gmin = 0.000115671
vernier = 0.00641551
Gmin = 0.000114061
vernier = 0.00855401
vernier = 0.0114053
Gmin = 0.000111471
vernier = 0.0152071
vernier = 0.0202762
Gmin = 0.000107491
vernier = 0.0270349
Gmin = 0.000101336
vernier = 0.0360465
vernier = 0.048062
Gmin = 9.20238e-05
vernier = 0.0640826
vernier = 0.0854435
Gmin = 7.90213e-05
vernier = 0.113925
Gmin = 6.17826e-05
vernier = 0.151899
vernier = 0.202533
Gmin = 4.14186e-05
vernier = 0.270043
vernier = 0.360058
Gmin = 2.21399e-05
vernier = 0.480077
Gmin = 8.16372e-06
vernier = 0.640102
vernier = 0.853469
Gmin = 1.67448e-06
vernier = 1
vernier = 0.5
Gmin = 3.07152e-07
vernier = 0.25
vernier = 0.125
vernier = 0.0625
vernier = 0.03125
vernier = 0.015625
vernier = 0.0078125
vernier = 0.00390625
vernier = 0.00195312
vernier = 0.000976562
vernier = 0.000488281
Gmin = 3.07152e-07
Gmin = 0
Gmin stepping failed

Starting source stepping with srcstepmethod=0
Source Step = 3.0303%
Source Step = 13.0682%
Source Step = 14.9621%
Source Step = 16.8561%
Source Step = 18.75%
Source Step = 20.6439%
vernier = 0.09375
Source Step = 22.9167%
Source Step = 25.7576%
Source Step = 28.5985%
Source Step = 31.4394%
Source Step = 34.2803%
vernier = 0.140625
Source Step = 37.5473%
Source Step = 41.8087%
Source Step = 46.0701%
Source Step = 50.3314%
Source Step = 54.5928%
vernier = 0.210938
Source Step = 59.2803%
Source Step = 65.6723%
Source Step = 72.0644%
Source Step = 78.4564%
Source Step = 84.8485%
Source Step = 90.1219%
vernier = 0.0131836
Source Step = 90.052%
Starting source stepping with srcstepmethod=1
Source Step = 3.0303%
vernier = 0.25
Source Step = 7.57576%
Source Step = 15.1515%
Source Step = 22.7273%
Source Step = 30.303%
Source Step = 37.8788%
vernier = 0.375
Source Step = 48.8636%
Source Step = 60.2273%
Source Step = 71.5909%
Source Step = 82.9545%
Source Step = 94.3182%
vernier = 0.5625
Source Step = 99.4794%
vernier = 0.00219727
Source Step = 99.5194%
Source Step = 99.5859%
Source Step = 99.6525%
Source Step = 99.7191%
Source Step = 99.7857%
Source Step = 99.8523%
Source Step = 99.9189%
Source Step = 99.9854%
Source Step = 100%
Source stepping failed

Pseudo Transient failed in finding the operating point at 5 탎.
Early termination of direct N-R iteration.
Direct Newton iteration failed to find .op point.  (Use ".option noopiter" to skip.)
Starting Gmin stepping
Gmin = 10
Gmin = 1.07374
Gmin = 0.115292
Gmin = 0.0123794
vernier = 0.5
Gmin = 0.00230769
vernier = 0.25
vernier = 0.125
Gmin = 0.00186221
vernier = 0.166667
vernier = 0.222222
Gmin = 0.00117417
vernier = 0.296296
vernier = 0.395061
vernier = 0.197531
Gmin = 0.000686379
vernier = 0.0987653
vernier = 0.0493827
vernier = 0.0246913
vernier = 0.0123457
vernier = 0.00617283
vernier = 0.00308642
vernier = 0.00154321
vernier = 0.000771604
vernier = 0.000578703
vernier = 0.000434027
Gmin = 0.000686379
Gmin = 0
Gmin stepping failed

Starting source stepping with srcstepmethod=0
Source Step = 3.0303%
Source Step = 33.3333%
Source Step = 63.6364%
Source Step = 88.6364%
vernier = 0.0625
Source Step = 87.8995%
Starting source stepping with srcstepmethod=1
Source Step = 3.0303%
vernier = 0.25
Source Step = 7.57576%
Source Step = 15.1515%
Source Step = 22.7273%
Source Step = 30.303%
Source Step = 37.8788%
vernier = 0.375
Source Step = 48.8636%
Source Step = 60.2273%
Source Step = 71.5909%
Source Step = 82.9545%
Source Step = 89.7727%
Source Step = 90.7138%
vernier = 0.00146484
Source Step = 90.7404%
Source Step = 90.7848%
Source Step = 90.8292%
Source Step = 90.8736%
Source Step = 90.918%
Source Step = 90.9624%
Source Step = 91.0067%
Source Step = 91.0511%
Source Step = 91.0955%
Source stepping failed

Pseudo Transient failed in finding the operating point at 5 탎.
Direct Newton iteration failed to find .op point.  (Use ".option noopiter" to skip.)
Starting Gmin stepping
Gmin = 10
Gmin = 1.07374
Gmin = 0.115292
Gmin = 0.0123794
vernier = 0.5
Gmin = 0.00230769
vernier = 0.25
vernier = 0.125
vernier = 0.0625
vernier = 0.03125
Gmin = 0.00210612
vernier = 0.015625
vernier = 0.0208333
Gmin = 0.00203353
vernier = 0.0277778
vernier = 0.037037
Gmin = 0.00190303
vernier = 0.0493827
Gmin = 0.00170918
vernier = 0.0658435
vernier = 0.0877914
Gmin = 0.00143426
vernier = 0.117055
vernier = 0.156073
Gmin = 0.00108783
vernier = 0.208098
Gmin = 0.000697131
vernier = 0.277464
vernier = 0.369952
Gmin = 0.000339845
vernier = 0.184976
vernier = 0.0924879
vernier = 0.046244
vernier = 0.023122
vernier = 0.011561
vernier = 0.00578049
vernier = 0.00289025
vernier = 0.00144512
Gmin = 0.000311074
vernier = 0.000722562
vernier = 0.000541921
vernier = 0.000406441
Gmin = 0
Gmin stepping failed

Starting source stepping with srcstepmethod=0
Source Step = 3.0303%
Source Step = 33.3333%
Source Step = 63.6364%
Source Step = 88.6364%
vernier = 0.0625
Source Step = 87.8995%
Starting source stepping with srcstepmethod=1
Source Step = 3.0303%
vernier = 0.25
Source Step = 7.57576%
Source Step = 15.1515%
Source Step = 22.7273%
Source Step = 30.303%
Source Step = 37.8788%
vernier = 0.375
Source Step = 48.8636%
Source Step = 60.2273%
Source Step = 71.5909%
Source Step = 82.9545%
vernier = 0.09375
Source Step = 84.6591%
Source Step = 87.5%
Source Step = 89.027%
Source Step = 89.2045%
Source stepping failed

Pseudo Transient failed in finding the operating point at 5 탎.
Early termination of direct N-R iteration.
Direct Newton iteration failed to find .op point.  (Use ".option noopiter" to skip.)
Starting Gmin stepping
Gmin = 10
Gmin = 1.07374
Gmin = 0.115292
Gmin = 0.0123794
vernier = 0.5
Gmin = 0.00230769
vernier = 0.25
vernier = 0.125
vernier = 0.0625
vernier = 0.03125
Gmin = 0.00210612
vernier = 0.015625
vernier = 0.0208333
Gmin = 0.00202827
vernier = 0.0277778
Gmin = 0.00190576
vernier = 0.037037
vernier = 0.0493827
Gmin = 0.00171687
vernier = 0.0658435
vernier = 0.0877914
Gmin = 0.00145438
vernier = 0.117055
Gmin = 0.00112151
vernier = 0.156073
vernier = 0.208098
Gmin = 0.000727713
vernier = 0.277464
vernier = 0.369952
vernier = 0.184976
Gmin = 0.000439694
vernier = 0.0924879
vernier = 0.046244
vernier = 0.023122
Gmin = 0.000419976
vernier = 0.0308293
vernier = 0.0411057
Gmin = 0.000390183
vernier = 0.0548076
Gmin = 0.000346351
vernier = 0.0730768
vernier = 0.0365384
vernier = 0.0182692
vernier = 0.0091346
vernier = 0.0045673
vernier = 0.00228365
vernier = 0.00114182
Gmin = 0.000329519
vernier = 0.000570912
vernier = 0.000428184
Gmin = 0
Gmin stepping failed

Starting source stepping with srcstepmethod=0
Source Step = 3.0303%
Source Step = 14.3939%
Source Step = 21.9697%
Source Step = 29.5455%
Source Step = 37.1212%
Source Step = 44.697%
vernier = 0.375
Source Step = 54.5455%
Source Step = 65.9091%
Source Step = 77.2727%
Source Step = 88.6364%
Source Step = 89.7949%
Starting source stepping with srcstepmethod=1
Source Step = 3.0303%
vernier = 0.25
Source Step = 7.57576%
Source Step = 15.1515%
Source Step = 22.7273%
Source Step = 30.303%
Source Step = 37.8788%
vernier = 0.375
Source Step = 48.8636%
Source Step = 60.2273%
Source Step = 71.5909%
Source Step = 82.9545%
Source Step = 85.6889%
Source stepping failed

Pseudo Transient failed in finding the operating point at 5 탎.
Early termination of direct N-R iteration.
Direct Newton iteration failed to find .op point.  (Use ".option noopiter" to skip.)
Starting Gmin stepping
Gmin = 10
Gmin = 1.07374
Gmin = 0.115292
Gmin = 0.0123794
vernier = 0.5
Gmin = 0.00230769
vernier = 0.25
vernier = 0.333333
Gmin = 0.00134044
vernier = 0.444444
vernier = 0.592592
Gmin = 0.000487997
vernier = 0.296296
vernier = 0.148148
vernier = 0.074074
vernier = 0.037037
vernier = 0.0185185
vernier = 0.00925925
vernier = 0.00462963
vernier = 0.00231481
vernier = 0.00115741
Gmin = 0.000487997
vernier = 0.000578703
vernier = 0.000434027
Gmin = 0
Gmin stepping failed

Starting source stepping with srcstepmethod=0
Source Step = 3.0303%
Source Step = 14.3939%
Source Step = 21.9697%
Source Step = 29.5455%
Source Step = 37.1212%
Source Step = 44.697%
vernier = 0.375
Source Step = 54.5455%
Source Step = 65.9091%
Source Step = 77.2727%
Source Step = 88.6364%
vernier = 0.09375
Source Step = 87.5311%
Starting source stepping with srcstepmethod=1
Source Step = 3.0303%
vernier = 0.25
Source Step = 7.57576%
Source Step = 15.1515%
Source Step = 22.7273%
Source Step = 30.303%
Source Step = 37.8788%
vernier = 0.375
Source Step = 48.8636%
Source Step = 60.2273%
Source Step = 71.5909%
Source Step = 73.9524%
Source Step = 74.0723%
Source stepping failed

Pseudo Transient failed in finding the operating point at 5 탎.
Early termination of direct N-R iteration.
Direct Newton iteration failed to find .op point.  (Use ".option noopiter" to skip.)
Starting Gmin stepping
Gmin = 10
Gmin = 1.07374
Gmin = 0.115292
Gmin = 0.0123794
vernier = 0.5
Gmin = 0.00207692
vernier = 0.666667
Gmin = 0.00053324
vernier = 0.333333
vernier = 0.166667
vernier = 0.0833333
vernier = 0.0416667
vernier = 0.0208333
vernier = 0.0104167
vernier = 0.00520833
vernier = 0.00260417
vernier = 0.00130208
vernier = 0.000651042
Gmin = 0.000622114
vernier = 0.000488281
Gmin = 0
Gmin stepping failed

Starting source stepping with srcstepmethod=0
Source Step = 3.0303%
Source Step = 14.3939%
Source Step = 21.9697%
Source Step = 29.5455%
Source Step = 37.1212%
Source Step = 44.697%
vernier = 0.375
Source Step = 54.5455%
Source Step = 60.5114%
Source Step = 63.3523%
Source Step = 66.1932%
Source Step = 69.0341%
Source Step = 71.875%
vernier = 0.140625
Source Step = 75.2841%
Source Step = 79.5455%
Source Step = 83.8068%
Source Step = 87.3224%
vernier = 0.00878906
Source Step = 87.2758%
Source Step = 87.3424%
Source Step = 87.409%
Source Step = 87.4756%
Source Step = 87.5422%
Source Step = 87.6088%
Source Step = 87.6753%
Source Step = 87.7419%
Source Step = 87.8085%
Source Step = 87.8751%
vernier = 0.0032959
Source Step = 87.965%
Source Step = 88.0649%
Starting source stepping with srcstepmethod=1
Source Step = 3.0303%
vernier = 0.25
Source Step = 7.57576%
Source Step = 15.1515%
Source Step = 22.7273%
Source Step = 30.303%
Source Step = 37.8788%
vernier = 0.375
Source Step = 48.8636%
Source Step = 60.2273%
Source Step = 63.6364%
Source Step = 66.4773%
Source Step = 67.9687%
Source Step = 68.679%
Source Step = 68.9986%
Source Step = 69.1761%
Source Step = 69.3537%
Source Step = 69.5312%
Source Step = 69.7088%
vernier = 0.00878906
Source Step = 69.9308%
Source Step = 70.1505%
Source stepping failed

Pseudo Transient failed in finding the operating point at 5 탎.
Direct Newton iteration failed to find .op point.  (Use ".option noopiter" to skip.)
Starting Gmin stepping
Gmin = 10
Gmin = 1.07374
Gmin = 0.115292
Gmin = 0.0123794
vernier = 0.5
Gmin = 0.00207692
vernier = 0.25
vernier = 0.125
vernier = 0.0625
vernier = 0.03125
Gmin = 0.00202911
vernier = 0.0416667
Gmin = 0.00184835
vernier = 0.0555555
vernier = 0.074074
Gmin = 0.00158113
vernier = 0.0987653
vernier = 0.131687
Gmin = 0.00123406
vernier = 0.175583
Gmin = 0.000837767
vernier = 0.23411
vernier = 0.312147
vernier = 0.156073
Gmin = 0.00051244
vernier = 0.0780367
vernier = 0.0390184
vernier = 0.0195092
Gmin = 0.000483702
vernier = 0.00975459
vernier = 0.0048773
vernier = 0.00650306
Gmin = 0.000481542
vernier = 0.00867074
Gmin = 0.000472247
vernier = 0.011561
vernier = 0.0154146
Gmin = 0.000457054
vernier = 0.0205529
vernier = 0.0274038
Gmin = 0.000433852
vernier = 0.0365384
vernier = 0.0182692
Gmin = 0.000407084
vernier = 0.0091346
vernier = 0.0045673
vernier = 0.00228365
vernier = 0.00114182
vernier = 0.000570912
vernier = 0.000428184
Gmin = 0
Gmin stepping failed

Starting source stepping with srcstepmethod=0
Source Step = 3.0303%
Source Step = 14.3939%
Source Step = 21.9697%
Source Step = 29.5455%
Source Step = 37.1212%
Source Step = 44.697%
vernier = 0.375
Source Step = 54.5455%
Source Step = 65.9091%
Source Step = 77.2727%
Source Step = 84.1087%
vernier = 0.00146484
Source Step = 84.1353%
Source Step = 84.1797%
Source Step = 84.2241%
Source Step = 84.2685%
Source Step = 84.3129%
vernier = 0.00219727
Source Step = 84.3706%
Source Step = 84.4371%
Source Step = 84.5037%
Source Step = 84.5703%
Source Step = 84.6369%
vernier = 0.0032959
Source Step = 84.7201%
Source Step = 84.82%
Source Step = 84.9199%
Source Step = 85.0198%
Source Step = 85.1196%
vernier = 0.00494385
Source Step = 85.2395%
Source Step = 85.3893%
Source Step = 85.5391%
Source Step = 85.5841%
Source Step = 85.6215%
Source Step = 85.659%
Source Step = 85.6964%
Source Step = 85.7339%
vernier = 0.00185394
Source Step = 85.7751%
Source Step = 85.8312%
Starting source stepping with srcstepmethod=1
Source Step = 3.0303%
vernier = 0.25
Source Step = 7.57576%
Source Step = 15.1515%
Source Step = 22.7273%
Source Step = 30.303%
Source Step = 37.8788%
vernier = 0.375
Source Step = 48.8636%
Source Step = 57.3864%
Source Step = 58.8778%
Source Step = 59.5881%
Source Step = 60.2983%
vernier = 0.00585938
Source Step = 60.2805%
Source stepping failed

Pseudo Transient failed in finding the operating point at 5 탎.
Early termination of direct N-R iteration.
Direct Newton iteration failed to find .op point.  (Use ".option noopiter" to skip.)
Starting Gmin stepping
Gmin = 10
Gmin = 1.07374
Gmin = 0.115292
Gmin = 0.0123794
vernier = 0.5
Gmin = 0.00207692
vernier = 0.25
vernier = 0.125
vernier = 0.166667
Gmin = 0.00170951
vernier = 0.222222
Gmin = 0.00106371
vernier = 0.296296
vernier = 0.395061
Gmin = 0.00049479
vernier = 0.197531
vernier = 0.0987653
vernier = 0.0493827
vernier = 0.0246913
Gmin = 0.000511736
vernier = 0.0123457
vernier = 0.00617283
vernier = 0.00308642
vernier = 0.00154321
Gmin = 0.000513508
vernier = 0.000771604
vernier = 0.00102881
Gmin = 0.000512617
vernier = 0.00137174
vernier = 0.00182899
Gmin = 0.000510935
vernier = 0.00243865
Gmin = 0.000508218
vernier = 0.00325153
vernier = 0.00433537
Gmin = 0.000503798
vernier = 0.00578049
vernier = 0.00770732
Gmin = 0.000496874
vernier = 0.0102764
Gmin = 0.000485841
vernier = 0.0137019
vernier = 0.0182692
Gmin = 0.000468309
vernier = 0.0243589
vernier = 0.0324786
Gmin = 0.000441838
vernier = 0.0162393
vernier = 0.00811964
vernier = 0.00405982
vernier = 0.00202991
vernier = 0.00101495
vernier = 0.000507477
Gmin = 0
Gmin stepping failed

Starting source stepping with srcstepmethod=0
Source Step = 3.0303%
Source Step = 33.3333%
Source Step = 63.6364%
Source Step = 69.697%
Source Step = 71.5909%
Source Step = 73.4848%
Source Step = 75.3788%
Source Step = 77.2727%
vernier = 0.09375
Source Step = 79.4508%
Source Step = 79.4818%
Source Step = 79.5262%
Source Step = 79.5706%
Source Step = 79.615%
Source Step = 79.6594%
vernier = 0.00219727
Source Step = 79.7082%
Source Step = 79.7748%
Source Step = 79.8414%
Source Step = 79.908%
Source Step = 79.9746%
vernier = 0.0032959
Source Step = 80.0445%
Source Step = 80.1443%
Source Step = 80.2442%
Source Step = 80.3441%
Source Step = 80.444%
Source Step = 80.5438%
vernier = 0.00494385
Source Step = 80.6937%
Source Step = 80.7498%
Source Step = 80.7873%
Source Step = 80.8247%
Source Step = 80.8622%
Source Step = 80.8996%
vernier = 0.00185394
Source Step = 80.9408%
Source Step = 80.997%
Source Step = 81.0532%
Source Step = 81.1094%
Source Step = 81.1656%
Source Step = 81.2217%
Source Step = 81.2779%
Source Step = 81.3341%
Source Step = 81.3903%
vernier = 0.00278091
Source Step = 81.4633%
Source Step = 81.5476%
Source Step = 81.6319%
Source Step = 81.7161%
Starting source stepping with srcstepmethod=1
Source Step = 3.0303%
vernier = 0.25
Source Step = 7.57576%
Source Step = 15.1515%
Source Step = 22.7273%
Source Step = 30.303%
Source Step = 37.8788%
vernier = 0.375
Source Step = 48.8636%
Source Step = 60.2273%
Source Step = 71.5909%
Source Step = 82.9545%
Source Step = 94.3182%
vernier = 0.5625
Source Step = 99.0067%
Source Step = 99.0732%
Source Step = 99.1398%
Source Step = 99.2064%
Source Step = 99.273%
Source Step = 99.3396%
Source Step = 99.4062%
Source Step = 99.4727%
Source Step = 99.5393%
Source Step = 99.6059%
Source Step = 99.6725%
Source Step = 99.7391%
Source stepping failed

Pseudo Transient failed in finding the operating point at 5 탎.
Early termination of direct N-R iteration.
Direct Newton iteration failed to find .op point.  (Use ".option noopiter" to skip.)
Starting Gmin stepping
Gmin = 10
Gmin = 1.07374
Gmin = 0.115292
Gmin = 0.0123794
vernier = 0.5
Gmin = 0.00207692
vernier = 0.25
vernier = 0.125
vernier = 0.0625
vernier = 0.03125
Gmin = 0.00199837
vernier = 0.015625
vernier = 0.0208333
Gmin = 0.00193449
vernier = 0.0277778
vernier = 0.037037
Gmin = 0.00180308
vernier = 0.0493827
Gmin = 0.00161447
vernier = 0.0658435
vernier = 0.0877914
Gmin = 0.00134206
vernier = 0.117055
vernier = 0.156073
Gmin = 0.00100117
vernier = 0.208098
Gmin = 0.000633665
vernier = 0.277464
vernier = 0.138732
vernier = 0.0693659
Gmin = 0.000517297
vernier = 0.0924879
vernier = 0.046244
vernier = 0.023122
vernier = 0.011561
vernier = 0.00578049
vernier = 0.00289025
Gmin = 0.000474779
vernier = 0.00144512
vernier = 0.000722562
vernier = 0.000541921
vernier = 0.000406441
Gmin = 0
Gmin stepping failed

Starting source stepping with srcstepmethod=0
Source Step = 3.0303%
Source Step = 14.3939%
Source Step = 21.9697%
Source Step = 29.5455%
Source Step = 37.1212%
Source Step = 44.697%
vernier = 0.375
Source Step = 54.5455%
Source Step = 65.9091%
Source Step = 75.2841%
vernier = 0.0234375
Source Step = 75.0355%
Source Step = 75.0799%
Source Step = 75.1243%
Source Step = 75.1687%
Source Step = 75.2131%
vernier = 0.00219727
Source Step = 75.2663%
Source Step = 75.3329%
Source Step = 75.3995%
Source Step = 75.4661%
Source Step = 75.5327%
vernier = 0.0032959
Source Step = 75.6092%
Source Step = 75.7091%
Source Step = 75.809%
Source Step = 75.9089%
Source Step = 76.0087%
vernier = 0.00494385
Source Step = 76.1186%
Source Step = 76.1973%
Starting source stepping with srcstepmethod=1
Source Step = 3.0303%
vernier = 0.25
Source Step = 7.57576%
Source Step = 15.1515%
Source Step = 22.7273%
Source Step = 30.303%
Source Step = 37.8788%
vernier = 0.375
Source Step = 48.8636%
Source Step = 56.5341%
Source Step = 59.375%
Source Step = 60.2273%
Source Step = 60.9375%
Source Step = 61.6477%
Source Step = 62.358%
Source Step = 63.0682%
vernier = 0.0351562
Source Step = 64.027%
Source Step = 65.0923%
Source Step = 65.4053%
Source Step = 65.4719%
Source stepping failed

Pseudo Transient failed in finding the operating point at 5 탎.

Date: Sat Dec 16 02:05:21 2023
Total elapsed time: 63.787 seconds.

tnom = 27
temp = 27
method = trap
totiter = 1238382
traniter = 0
tranpoints = 0
accept = 0
rejected = 16192
matrix size = 140
fillins = 264
solver = Normal
Avg thread counts: 1.0/0.0/1.1/1.0
Matrix Compiler1: 25.00 KB object code size  2.7/2.1/[1.2]
Matrix Compiler2: 15.86 KB object code size  1.2/1.5/[0.5]

