Circuit: * C:\Users\abeel\AppData\Local\LTspice\Laboratorios de Síntesis de Redes Activas\Laboratorio n° 3\Circuito 1\Laboratorio n° 3 - Circuito 1.asc

Direct Newton iteration failed to find .op point.  (Use ".option noopiter" to skip.)
Starting Gmin stepping
Gmin = 10
Gmin = 1.07374
Gmin = 0.115292
Gmin = 0.0123794
Gmin = 0.00132923
Gmin = 0.000142725
Gmin = 1.5325e-05
vernier = 0.5
vernier = 0.25
vernier = 0.125
vernier = 0.0625
vernier = 0.03125
vernier = 0.015625
vernier = 0.0078125
Gmin = 9.80797e-06
vernier = 0.0104167
Gmin = 9.58726e-06
vernier = 0.0138889
vernier = 0.0185185
Gmin = 9.23666e-06
vernier = 0.0246913
vernier = 0.0329218
Gmin = 8.70767e-06
vernier = 0.0438957
Gmin = 7.91413e-06
vernier = 0.0585276
vernier = 0.0780367
Gmin = 6.77078e-06
vernier = 0.104049
vernier = 0.138732
Gmin = 5.2935e-06
vernier = 0.184976
Gmin = 3.56075e-06
vernier = 0.246634
vernier = 0.328846
Gmin = 1.87527e-06
vernier = 0.438461
vernier = 0.584614
Gmin = 6.91591e-07
vernier = 0.779486
Gmin = 1.43559e-07
vernier = 1
Gmin = 1.61257e-08
Gmin = 1.73148e-09
Gmin = 1.85916e-10
Gmin = 1.99626e-11
Gmin = 2.14347e-12
Gmin = 2.30153e-13
Gmin = 0
Gmin stepping succeeded in finding the operating point.

Ignoring empty pin current: Ix(u1:dummy)
Ignoring empty pin current: Ix(u2:dummy)
Ignoring empty pin current: Ix(u1:dummy)
Ignoring empty pin current: Ix(u2:dummy)

Date: Tue Dec 12 02:18:21 2023
Total elapsed time: 0.279 seconds.

tnom = 27
temp = 27
method = modified trap
totiter = 8954
traniter = 7409
tranpoints = 2273
accept = 1897
rejected = 376
matrix size = 124
fillins = 96
solver = Normal
Avg thread counts: 2.1/2.2/1.3/1.1
Matrix Compiler1: 13.99 KB object code size  3.0/1.8/[1.3]
Matrix Compiler2: 13.22 KB object code size  1.1/1.3/[0.6]

